
                            < M A T L A B (R) >
                  Copyright 1984-2017 The MathWorks, Inc.
                   R2017a (9.2.0.538062) 64-bit (glnxa64)
                             February 23, 2017

 
To get started, type one of these: helpwin, helpdesk, or demo.
For product information, visit www.mathworks.com.
 
Running "Run1", Seed: 910648
 *** Finished Simulation Run ***

config-18.json #############################################

[#.........] | Progress: 1 | Time: 0.0s | ETA: --[.#........] | Progress: 231 | Time: 0.1s | ETA: --[..#.......] | Progress: 468 | Time: 0.1s | ETA: --[...#......] | Progress: 698 | Time: 0.2s | ETA: --[##########] | Progress: 894 | Time: 0.2s | ETA: --fit<>, fid</home/chun/projects/clineage-simulation/analysis/tmc-910648/tmc-004/case-18/triplets-list.raw.txt>, flg<treeReconstruction.log>, frt<resTree.tree>, frtN</home/chun/projects/clineage-simulation/analysis/tmc-910648/tmc-004/case-18/reconstructed.tmp.newick>, fsd<qqq.dat>, fst<simul.tree>, -->index=2
Read triplets from file...
Read triplets from file...Finished
N_triplets = 859, idMaxFound = 21
treeBuildBasedOnTriplets_run...
make_isTogetherInTripletAndDeleteExtraTriplets: Finished
maxCut with 21 nodes: Finished
maxCut with 20 nodes: Finished
maxCut with 8 nodes: Finished
maxCut with 6 nodes: Finished
maxCut with 12 nodes: Finished
maxCut with 7 nodes: Finished
maxCut with 5 nodes: Finished
treeBuildBasedOnTriplets_run...Finished
Saving tree to file...
Saving tree to file...Finished

                            < M A T L A B (R) >
                  Copyright 1984-2017 The MathWorks, Inc.
                   R2017a (9.2.0.538062) 64-bit (glnxa64)
                             February 23, 2017

 
To get started, type one of these: helpwin, helpdesk, or demo.
For product information, visit www.mathworks.com.
 
TreeCmp version build2

Active options:
Type of the analysis:  ref-to-all comparison mode (-r)
Metrics:
  1. MatchingCluster (mc)
  2. R-F_Cluster (rc)
  3. NodalSplitted (ns)
  4. Triples (tt)
  5. MatchingPair (mp)
  6. MAST (mt)
  7. CopheneticL2Metric (co)
Input file: /home/chun/projects/clineage-simulation/analysis/tmc-910648/tmc-004/case-18/reconstructed.newick
Output file: /home/chun/projects/clineage-simulation/analysis/tmc-910648/tmc-004/case-18/scores.raw.out
Additional options:
N - Report normalized distances.
P - Prune compared trees if needed (trees can have different leaf sets).
I - Include summary section in the output file.
-----
2018-06-18 21:45:56: Start of reading random statistics.
2018-06-18 21:45:56: End of reading random statistics.
2018-06-18 21:45:56: Start of scanning input file: /home/chun/projects/clineage-simulation/analysis/tmc-910648/tmc-004/case-18/reconstructed.newick
2018-06-18 21:45:56: End of scanning input file: /home/chun/projects/clineage-simulation/analysis/tmc-910648/tmc-004/case-18/reconstructed.newick
2018-06-18 21:45:56: 1 valid trees found in file: /home/chun/projects/clineage-simulation/analysis/tmc-910648/tmc-004/case-18/reconstructed.newick
2018-06-18 21:45:56: Start of calculation...please wait...
2018-06-18 21:45:56: 0.00% completed...
2018-06-18 21:45:56: 100.00% completed.
2018-06-18 21:45:56: End of calculation.
2018-06-18 21:45:56: Total calculation time: 26 ms.
                               metrics
No                              1.0000
RefTree                         1.0000
Tree                            1.0000
RefTree_taxa                   21.0000
Tree_taxa                      21.0000
Common_taxa                    21.0000
MatchingCluster                30.0000
MatchingCluster_toYuleAvg       0.3275
MatchingCluster_toUnifAvg       0.2836
R-F_Cluster                     9.0000
R-F_Cluster_toYuleAvg           0.4795
R-F_Cluster_toUnifAvg           0.4775
NodalSplitted                  26.1534
NodalSplitted_toYuleAvg         0.4248
NodalSplitted_toUnifAvg         0.3360
Triples                       321.0000
Triples_toYuleAvg               0.3615
Triples_toUnifAvg               0.3622
MatchingPair                   64.0000
MatchingPair_toYuleAvg          0.4285
MatchingPair_toUnifAvg          0.4372
MAST                            9.0000
MAST_toYuleAvg                  0.6349
MAST_toUnifAvg                  0.6304
CopheneticL2Metric             16.4621
CopheneticL2Metric_toYuleAvg    0.3460
CopheneticL2Metric_toUnifAvg    0.2850

                 Name         Avg  Std         Min         Max  Count
0     MatchingCluster   30.000000  0.0   30.000000   30.000000      1
1         R-F_Cluster    9.000000  0.0    9.000000    9.000000      1
2       NodalSplitted   26.153394  0.0   26.153394   26.153394      1
3             Triples  321.000000  0.0  321.000000  321.000000      1
4        MatchingPair   64.000000  0.0   64.000000   64.000000      1
5                MAST    9.000000  0.0    9.000000    9.000000      1
6  CopheneticL2Metric   16.462078  0.0   16.462078   16.462078      1
