
                            < M A T L A B (R) >
                  Copyright 1984-2017 The MathWorks, Inc.
                   R2017a (9.2.0.538062) 64-bit (glnxa64)
                             February 23, 2017

 
To get started, type one of these: helpwin, helpdesk, or demo.
For product information, visit www.mathworks.com.
 
Running "Run1", Seed: 910648
 *** Finished Simulation Run ***

config-16.json #############################################

[#.........] | Progress: 1 | Time: 0.0s | ETA: --[.#........] | Progress: 553 | Time: 0.1s | ETA: --[##########] | Progress: 652 | Time: 0.1s | ETA: --fit<>, fid</home/chun/projects/clineage-simulation/analysis/tmc-910648/tmc-001/case-16/triplets-list.raw.txt>, flg<treeReconstruction.log>, frt<resTree.tree>, frtN</home/chun/projects/clineage-simulation/analysis/tmc-910648/tmc-001/case-16/reconstructed.tmp.newick>, fsd<qqq.dat>, fst<simul.tree>, -->index=2
Read triplets from file...
Read triplets from file...Finished
N_triplets = 311, idMaxFound = 19
treeBuildBasedOnTriplets_run...
make_isTogetherInTripletAndDeleteExtraTriplets: Finished
maxCut with 16 nodes: Finished
maxCut with 14 nodes: Finished
maxCut with 10 nodes: Finished
treeBuildBasedOnTriplets_run...Finished
Saving tree to file...
Saving tree to file...Finished

                            < M A T L A B (R) >
                  Copyright 1984-2017 The MathWorks, Inc.
                   R2017a (9.2.0.538062) 64-bit (glnxa64)
                             February 23, 2017

 
To get started, type one of these: helpwin, helpdesk, or demo.
For product information, visit www.mathworks.com.
 
TreeCmp version build2

Active options:
Type of the analysis:  ref-to-all comparison mode (-r)
Metrics:
  1. MatchingCluster (mc)
  2. R-F_Cluster (rc)
  3. NodalSplitted (ns)
  4. Triples (tt)
  5. MatchingPair (mp)
  6. MAST (mt)
  7. CopheneticL2Metric (co)
Input file: /home/chun/projects/clineage-simulation/analysis/tmc-910648/tmc-001/case-16/reconstructed.newick
Output file: /home/chun/projects/clineage-simulation/analysis/tmc-910648/tmc-001/case-16/scores.raw.out
Additional options:
N - Report normalized distances.
P - Prune compared trees if needed (trees can have different leaf sets).
I - Include summary section in the output file.
-----
2018-06-18 21:45:53: Start of reading random statistics.
2018-06-18 21:45:53: End of reading random statistics.
2018-06-18 21:45:53: Start of scanning input file: /home/chun/projects/clineage-simulation/analysis/tmc-910648/tmc-001/case-16/reconstructed.newick
2018-06-18 21:45:53: End of scanning input file: /home/chun/projects/clineage-simulation/analysis/tmc-910648/tmc-001/case-16/reconstructed.newick
2018-06-18 21:45:53: 1 valid trees found in file: /home/chun/projects/clineage-simulation/analysis/tmc-910648/tmc-001/case-16/reconstructed.newick
2018-06-18 21:45:53: Start of calculation...please wait...
2018-06-18 21:45:53: 0.00% completed...
2018-06-18 21:45:53: 100.00% completed.
2018-06-18 21:45:53: End of calculation.
2018-06-18 21:45:53: Total calculation time: 25 ms.
                               metrics
No                              1.0000
RefTree                         1.0000
Tree                            1.0000
RefTree_taxa                   19.0000
Tree_taxa                      19.0000
Common_taxa                    19.0000
MatchingCluster                70.0000
MatchingCluster_toYuleAvg       0.9027
MatchingCluster_toUnifAvg       0.7876
R-F_Cluster                    12.5000
R-F_Cluster_toYuleAvg           0.7464
R-F_Cluster_toUnifAvg           0.7426
NodalSplitted                  42.9884
NodalSplitted_toYuleAvg         0.7993
NodalSplitted_toUnifAvg         0.6516
Triples                       706.0000
Triples_toYuleAvg               1.0971
Triples_toUnifAvg               1.0918
MatchingPair                  124.0000
MatchingPair_toYuleAvg          1.0361
MatchingPair_toUnifAvg          1.0528
MAST                           12.0000
MAST_toYuleAvg                  0.9588
MAST_toUnifAvg                  0.9514
CopheneticL2Metric             30.5778
CopheneticL2Metric_toYuleAvg    0.7243
CopheneticL2Metric_toUnifAvg    0.6209

                 Name         Avg  Std         Min         Max  Count
0     MatchingCluster   70.000000  0.0   70.000000   70.000000      1
1         R-F_Cluster   12.500000  0.0   12.500000   12.500000      1
2       NodalSplitted   42.988371  0.0   42.988371   42.988371      1
3             Triples  706.000000  0.0  706.000000  706.000000      1
4        MatchingPair  124.000000  0.0  124.000000  124.000000      1
5                MAST   12.000000  0.0   12.000000   12.000000      1
6  CopheneticL2Metric   30.577770  0.0   30.577770   30.577770      1
