
                            < M A T L A B (R) >
                  Copyright 1984-2017 The MathWorks, Inc.
                   R2017a (9.2.0.538062) 64-bit (glnxa64)
                             February 23, 2017

 
To get started, type one of these: helpwin, helpdesk, or demo.
For product information, visit www.mathworks.com.
 
Running "Run1", Seed: 910648
 *** Finished Simulation Run ***

config-13.json #############################################

[#.........] | Progress: 1 | Time: 0.0s | ETA: --[.#........] | Progress: 87 | Time: 0.1s | ETA: --[..#.......] | Progress: 176 | Time: 0.1s | ETA: --[...#......] | Progress: 265 | Time: 0.2s | ETA: --[....#.....] | Progress: 354 | Time: 0.2s | ETA: --[##########] | Progress: 389 | Time: 0.2s | ETA: --fit<>, fid</home/chun/projects/clineage-simulation/analysis/tmc-910648/tmc-006/case-13/triplets-list.raw.txt>, flg<treeReconstruction.log>, frt<resTree.tree>, frtN</home/chun/projects/clineage-simulation/analysis/tmc-910648/tmc-006/case-13/reconstructed.tmp.newick>, fsd<qqq.dat>, fst<simul.tree>, -->index=2
Read triplets from file...
Read triplets from file...Finished
N_triplets = 389, idMaxFound = 16
treeBuildBasedOnTriplets_run...
make_isTogetherInTripletAndDeleteExtraTriplets: Finished
maxCut with 16 nodes: Finished
maxCut with 15 nodes: Finished
maxCut with 10 nodes: Finished
treeBuildBasedOnTriplets_run...Finished
Saving tree to file...
Saving tree to file...Finished

                            < M A T L A B (R) >
                  Copyright 1984-2017 The MathWorks, Inc.
                   R2017a (9.2.0.538062) 64-bit (glnxa64)
                             February 23, 2017

 
To get started, type one of these: helpwin, helpdesk, or demo.
For product information, visit www.mathworks.com.
 
TreeCmp version build2

Active options:
Type of the analysis:  ref-to-all comparison mode (-r)
Metrics:
  1. MatchingCluster (mc)
  2. R-F_Cluster (rc)
  3. NodalSplitted (ns)
  4. Triples (tt)
  5. MatchingPair (mp)
  6. MAST (mt)
  7. CopheneticL2Metric (co)
Input file: /home/chun/projects/clineage-simulation/analysis/tmc-910648/tmc-006/case-13/reconstructed.newick
Output file: /home/chun/projects/clineage-simulation/analysis/tmc-910648/tmc-006/case-13/scores.raw.out
Additional options:
N - Report normalized distances.
P - Prune compared trees if needed (trees can have different leaf sets).
I - Include summary section in the output file.
-----
2018-06-18 21:46:38: Start of reading random statistics.
2018-06-18 21:46:38: End of reading random statistics.
2018-06-18 21:46:38: Start of scanning input file: /home/chun/projects/clineage-simulation/analysis/tmc-910648/tmc-006/case-13/reconstructed.newick
2018-06-18 21:46:38: End of scanning input file: /home/chun/projects/clineage-simulation/analysis/tmc-910648/tmc-006/case-13/reconstructed.newick
2018-06-18 21:46:38: 1 valid trees found in file: /home/chun/projects/clineage-simulation/analysis/tmc-910648/tmc-006/case-13/reconstructed.newick
2018-06-18 21:46:38: Start of calculation...please wait...
2018-06-18 21:46:38: 0.00% completed...
2018-06-18 21:46:38: 100.00% completed.
2018-06-18 21:46:38: End of calculation.
2018-06-18 21:46:38: Total calculation time: 20 ms.
                              metrics
No                             1.0000
RefTree                        1.0000
Tree                           1.0000
RefTree_taxa                  16.0000
Tree_taxa                     16.0000
Common_taxa                   16.0000
MatchingCluster               18.0000
MatchingCluster_toYuleAvg      0.3080
MatchingCluster_toUnifAvg      0.2788
R-F_Cluster                    3.0000
R-F_Cluster_toYuleAvg          0.2178
R-F_Cluster_toUnifAvg          0.2170
NodalSplitted                 13.5647
NodalSplitted_toYuleAvg        0.3223
NodalSplitted_toUnifAvg        0.2756
Triples                       64.0000
Triples_toYuleAvg              0.1715
Triples_toUnifAvg              0.1720
MatchingPair                  24.0000
MatchingPair_toYuleAvg         0.2939
MatchingPair_toUnifAvg         0.2999
MAST                           4.0000
MAST_toYuleAvg                 0.3974
MAST_toUnifAvg                 0.3950
CopheneticL2Metric            11.0905
CopheneticL2Metric_toYuleAvg   0.3375
CopheneticL2Metric_toUnifAvg   0.2982

                 Name        Avg  Std        Min        Max  Count
0     MatchingCluster  18.000000  0.0  18.000000  18.000000      1
1         R-F_Cluster   3.000000  0.0   3.000000   3.000000      1
2       NodalSplitted  13.564660  0.0  13.564660  13.564660      1
3             Triples  64.000000  0.0  64.000000  64.000000      1
4        MatchingPair  24.000000  0.0  24.000000  24.000000      1
5                MAST   4.000000  0.0   4.000000   4.000000      1
6  CopheneticL2Metric  11.090537  0.0  11.090537  11.090537      1
