
                            < M A T L A B (R) >
                  Copyright 1984-2017 The MathWorks, Inc.
                   R2017a (9.2.0.538062) 64-bit (glnxa64)
                             February 23, 2017

 
To get started, type one of these: helpwin, helpdesk, or demo.
For product information, visit www.mathworks.com.
 
Running "Run1", Seed: 875887
 *** Finished Simulation Run ***

config-09.json #############################################

[#.........] | Progress: 1 | Time: 0.0s | ETA: --[##########] | Progress: 160 | Time: 0.1s | ETA: --fit<>, fid</home/chun/projects/clineage-simulation/analysis/tmc-875887/tmc-004/case-09/triplets-list.raw.txt>, flg<treeReconstruction.log>, frt<resTree.tree>, frtN</home/chun/projects/clineage-simulation/analysis/tmc-875887/tmc-004/case-09/reconstructed.tmp.newick>, fsd<qqq.dat>, fst<simul.tree>, -->index=2
Read triplets from file...
Read triplets from file...Finished
N_triplets = 156, idMaxFound = 12
treeBuildBasedOnTriplets_run...
make_isTogetherInTripletAndDeleteExtraTriplets: Finished
maxCut with 9 nodes: Finished
treeBuildBasedOnTriplets_run...Finished
Saving tree to file...
Saving tree to file...Finished

                            < M A T L A B (R) >
                  Copyright 1984-2017 The MathWorks, Inc.
                   R2017a (9.2.0.538062) 64-bit (glnxa64)
                             February 23, 2017

 
To get started, type one of these: helpwin, helpdesk, or demo.
For product information, visit www.mathworks.com.
 
TreeCmp version build2

Active options:
Type of the analysis:  ref-to-all comparison mode (-r)
Metrics:
  1. MatchingCluster (mc)
  2. R-F_Cluster (rc)
  3. NodalSplitted (ns)
  4. Triples (tt)
  5. MatchingPair (mp)
  6. MAST (mt)
  7. CopheneticL2Metric (co)
Input file: /home/chun/projects/clineage-simulation/analysis/tmc-875887/tmc-004/case-09/reconstructed.newick
Output file: /home/chun/projects/clineage-simulation/analysis/tmc-875887/tmc-004/case-09/scores.raw.out
Additional options:
N - Report normalized distances.
P - Prune compared trees if needed (trees can have different leaf sets).
I - Include summary section in the output file.
-----
2018-06-18 21:26:56: Start of reading random statistics.
2018-06-18 21:26:56: End of reading random statistics.
2018-06-18 21:26:56: Start of scanning input file: /home/chun/projects/clineage-simulation/analysis/tmc-875887/tmc-004/case-09/reconstructed.newick
2018-06-18 21:26:56: End of scanning input file: /home/chun/projects/clineage-simulation/analysis/tmc-875887/tmc-004/case-09/reconstructed.newick
2018-06-18 21:26:56: 1 valid trees found in file: /home/chun/projects/clineage-simulation/analysis/tmc-875887/tmc-004/case-09/reconstructed.newick
2018-06-18 21:26:56: Start of calculation...please wait...
2018-06-18 21:26:56: 0.00% completed...
2018-06-18 21:26:56: 100.00% completed.
2018-06-18 21:26:56: End of calculation.
2018-06-18 21:26:56: Total calculation time: 19 ms.
                              metrics
No                             1.0000
RefTree                        1.0000
Tree                           1.0000
RefTree_taxa                  12.0000
Tree_taxa                     12.0000
Common_taxa                   12.0000
MatchingCluster                9.0000
MatchingCluster_toYuleAvg      0.2535
MatchingCluster_toUnifAvg      0.2380
R-F_Cluster                    3.5000
R-F_Cluster_toYuleAvg          0.3590
R-F_Cluster_toUnifAvg          0.3575
NodalSplitted                 10.8167
NodalSplitted_toYuleAvg        0.3971
NodalSplitted_toUnifAvg        0.3615
Triples                       23.0000
Triples_toYuleAvg              0.1562
Triples_toUnifAvg              0.1567
MatchingPair                  12.0000
MatchingPair_toYuleAvg         0.2837
MatchingPair_toUnifAvg         0.2875
MAST                           3.0000
MAST_toYuleAvg                 0.4354
MAST_toUnifAvg                 0.4311
CopheneticL2Metric             6.0000
CopheneticL2Metric_toYuleAvg   0.2768
CopheneticL2Metric_toUnifAvg   0.2547

                 Name        Avg  Std        Min        Max  Count
0     MatchingCluster   9.000000  0.0   9.000000   9.000000      1
1         R-F_Cluster   3.500000  0.0   3.500000   3.500000      1
2       NodalSplitted  10.816654  0.0  10.816654  10.816654      1
3             Triples  23.000000  0.0  23.000000  23.000000      1
4        MatchingPair  12.000000  0.0  12.000000  12.000000      1
5                MAST   3.000000  0.0   3.000000   3.000000      1
6  CopheneticL2Metric   6.000000  0.0   6.000000   6.000000      1
