
                            < M A T L A B (R) >
                  Copyright 1984-2017 The MathWorks, Inc.
                   R2017a (9.2.0.538062) 64-bit (glnxa64)
                             February 23, 2017

 
To get started, type one of these: helpwin, helpdesk, or demo.
For product information, visit www.mathworks.com.
 
Running "Run1", Seed: 136069
 *** Finished Simulation Run ***

config-06.json #############################################

[#.........] | Progress: 1 | Time: 0.0s | ETA: --[##########] | Progress: 64 | Time: 0.0s | ETA: --fit<>, fid</home/chun/projects/clineage-simulation/analysis/tmc-136069/tmc-001/case-06/triplets-list.raw.txt>, flg<treeReconstruction.log>, frt<resTree.tree>, frtN</home/chun/projects/clineage-simulation/analysis/tmc-136069/tmc-001/case-06/reconstructed.tmp.newick>, fsd<qqq.dat>, fst<simul.tree>, -->index=2
Read triplets from file...
Read triplets from file...Finished
N_triplets = 6, idMaxFound = 9
treeBuildBasedOnTriplets_run...
make_isTogetherInTripletAndDeleteExtraTriplets: Finished
treeBuildBasedOnTriplets_run...Finished
Saving tree to file...
Saving tree to file...Finished

                            < M A T L A B (R) >
                  Copyright 1984-2017 The MathWorks, Inc.
                   R2017a (9.2.0.538062) 64-bit (glnxa64)
                             February 23, 2017

 
To get started, type one of these: helpwin, helpdesk, or demo.
For product information, visit www.mathworks.com.
 
TreeCmp version build2

Active options:
Type of the analysis:  ref-to-all comparison mode (-r)
Metrics:
  1. MatchingCluster (mc)
  2. R-F_Cluster (rc)
  3. NodalSplitted (ns)
  4. Triples (tt)
  5. MatchingPair (mp)
  6. MAST (mt)
  7. CopheneticL2Metric (co)
Input file: /home/chun/projects/clineage-simulation/analysis/tmc-136069/tmc-001/case-06/reconstructed.newick
Output file: /home/chun/projects/clineage-simulation/analysis/tmc-136069/tmc-001/case-06/scores.raw.out
Additional options:
N - Report normalized distances.
P - Prune compared trees if needed (trees can have different leaf sets).
I - Include summary section in the output file.
-----
2018-06-19 06:53:20: Start of reading random statistics.
2018-06-19 06:53:20: End of reading random statistics.
2018-06-19 06:53:20: Start of scanning input file: /home/chun/projects/clineage-simulation/analysis/tmc-136069/tmc-001/case-06/reconstructed.newick
2018-06-19 06:53:20: End of scanning input file: /home/chun/projects/clineage-simulation/analysis/tmc-136069/tmc-001/case-06/reconstructed.newick
2018-06-19 06:53:20: 1 valid trees found in file: /home/chun/projects/clineage-simulation/analysis/tmc-136069/tmc-001/case-06/reconstructed.newick
2018-06-19 06:53:20: Start of calculation...please wait...
2018-06-19 06:53:20: 0.00% completed...
2018-06-19 06:53:20: 100.00% completed.
2018-06-19 06:53:20: End of calculation.
2018-06-19 06:53:20: Total calculation time: 18 ms.
                              metrics
No                             1.0000
RefTree                        1.0000
Tree                           1.0000
RefTree_taxa                   9.0000
Tree_taxa                      9.0000
Common_taxa                    9.0000
MatchingCluster               15.0000
MatchingCluster_toYuleAvg      0.7299
MatchingCluster_toUnifAvg      0.7029
R-F_Cluster                    4.0000
R-F_Cluster_toYuleAvg          0.6002
R-F_Cluster_toUnifAvg          0.5929
NodalSplitted                 12.0000
NodalSplitted_toYuleAvg        0.7093
NodalSplitted_toUnifAvg        0.6733
Triples                       67.0000
Triples_toYuleAvg              1.1982
Triples_toUnifAvg              1.2051
MatchingPair                  14.0000
MatchingPair_toYuleAvg         0.6604
MatchingPair_toUnifAvg         0.6692
MAST                           5.0000
MAST_toYuleAvg                 1.0903
MAST_toUnifAvg                 1.0730
CopheneticL2Metric             7.8102
CopheneticL2Metric_toYuleAvg   0.5592
CopheneticL2Metric_toUnifAvg   0.5393

                 Name       Avg  Std       Min       Max  Count
0     MatchingCluster  15.00000  0.0  15.00000  15.00000      1
1         R-F_Cluster   4.00000  0.0   4.00000   4.00000      1
2       NodalSplitted  12.00000  0.0  12.00000  12.00000      1
3             Triples  67.00000  0.0  67.00000  67.00000      1
4        MatchingPair  14.00000  0.0  14.00000  14.00000      1
5                MAST   5.00000  0.0   5.00000   5.00000      1
6  CopheneticL2Metric   7.81025  0.0   7.81025   7.81025      1
