
                            < M A T L A B (R) >
                  Copyright 1984-2017 The MathWorks, Inc.
                   R2017a (9.2.0.538062) 64-bit (glnxa64)
                             February 23, 2017

 
To get started, type one of these: helpwin, helpdesk, or demo.
For product information, visit www.mathworks.com.
 
Running "Run1", Seed: 136069
 *** Finished Simulation Run ***

config-14.json #############################################

[#.........] | Progress: 1 | Time: 0.0s | ETA: --[.#........] | Progress: 257 | Time: 0.1s | ETA: --[##########] | Progress: 459 | Time: 0.1s | ETA: --fit<>, fid</home/chun/projects/clineage-simulation/analysis/tmc-136069/tmc-003/case-14/triplets-list.raw.txt>, flg<treeReconstruction.log>, frt<resTree.tree>, frtN</home/chun/projects/clineage-simulation/analysis/tmc-136069/tmc-003/case-14/reconstructed.tmp.newick>, fsd<qqq.dat>, fst<simul.tree>, -->index=2
Read triplets from file...
Read triplets from file...Finished
N_triplets = 297, idMaxFound = 16
treeBuildBasedOnTriplets_run...
make_isTogetherInTripletAndDeleteExtraTriplets: Finished
maxCut with 15 nodes: Finished
maxCut with 14 nodes: Finished
maxCut with 7 nodes: Finished
maxCut with 7 nodes: Finished
maxCut with 6 nodes: Finished
treeBuildBasedOnTriplets_run...Finished
Saving tree to file...
Saving tree to file...Finished

                            < M A T L A B (R) >
                  Copyright 1984-2017 The MathWorks, Inc.
                   R2017a (9.2.0.538062) 64-bit (glnxa64)
                             February 23, 2017

 
To get started, type one of these: helpwin, helpdesk, or demo.
For product information, visit www.mathworks.com.
 
TreeCmp version build2

Active options:
Type of the analysis:  ref-to-all comparison mode (-r)
Metrics:
  1. MatchingCluster (mc)
  2. R-F_Cluster (rc)
  3. NodalSplitted (ns)
  4. Triples (tt)
  5. MatchingPair (mp)
  6. MAST (mt)
  7. CopheneticL2Metric (co)
Input file: /home/chun/projects/clineage-simulation/analysis/tmc-136069/tmc-003/case-14/reconstructed.newick
Output file: /home/chun/projects/clineage-simulation/analysis/tmc-136069/tmc-003/case-14/scores.raw.out
Additional options:
N - Report normalized distances.
P - Prune compared trees if needed (trees can have different leaf sets).
I - Include summary section in the output file.
-----
2018-06-19 06:53:29: Start of reading random statistics.
2018-06-19 06:53:29: End of reading random statistics.
2018-06-19 06:53:29: Start of scanning input file: /home/chun/projects/clineage-simulation/analysis/tmc-136069/tmc-003/case-14/reconstructed.newick
2018-06-19 06:53:29: End of scanning input file: /home/chun/projects/clineage-simulation/analysis/tmc-136069/tmc-003/case-14/reconstructed.newick
2018-06-19 06:53:29: 1 valid trees found in file: /home/chun/projects/clineage-simulation/analysis/tmc-136069/tmc-003/case-14/reconstructed.newick
2018-06-19 06:53:29: Start of calculation...please wait...
2018-06-19 06:53:29: 0.00% completed...
2018-06-19 06:53:29: 100.00% completed.
2018-06-19 06:53:29: End of calculation.
2018-06-19 06:53:29: Total calculation time: 27 ms.
                               metrics
No                              1.0000
RefTree                         1.0000
Tree                            1.0000
RefTree_taxa                   17.0000
Tree_taxa                      16.0000
Common_taxa                    16.0000
MatchingCluster                44.0000
MatchingCluster_toYuleAvg       0.7529
MatchingCluster_toUnifAvg       0.6815
R-F_Cluster                    10.5000
R-F_Cluster_toYuleAvg           0.7624
R-F_Cluster_toUnifAvg           0.7595
NodalSplitted                  26.7208
NodalSplitted_toYuleAvg         0.6348
NodalSplitted_toUnifAvg         0.5429
Triples                       266.0000
Triples_toYuleAvg               0.7129
Triples_toUnifAvg               0.7147
MatchingPair                   56.0000
MatchingPair_toYuleAvg          0.6857
MatchingPair_toUnifAvg          0.6997
MAST                            9.0000
MAST_toYuleAvg                  0.8942
MAST_toUnifAvg                  0.8888
CopheneticL2Metric             23.8118
CopheneticL2Metric_toYuleAvg    0.7245
CopheneticL2Metric_toUnifAvg    0.6402

                 Name         Avg  Std         Min         Max  Count
0     MatchingCluster   44.000000  0.0   44.000000   44.000000      1
1         R-F_Cluster   10.500000  0.0   10.500000   10.500000      1
2       NodalSplitted   26.720778  0.0   26.720778   26.720778      1
3             Triples  266.000000  0.0  266.000000  266.000000      1
4        MatchingPair   56.000000  0.0   56.000000   56.000000      1
5                MAST    9.000000  0.0    9.000000    9.000000      1
6  CopheneticL2Metric   23.811762  0.0   23.811762   23.811762      1
