
                            < M A T L A B (R) >
                  Copyright 1984-2017 The MathWorks, Inc.
                   R2017a (9.2.0.538062) 64-bit (glnxa64)
                             February 23, 2017

 
To get started, type one of these: helpwin, helpdesk, or demo.
For product information, visit www.mathworks.com.
 
Running "Run1", Seed: 136069
 *** Finished Simulation Run ***

config-13.json #############################################

[#.........] | Progress: 1 | Time: 0.0s | ETA: --[.#........] | Progress: 257 | Time: 0.1s | ETA: --[##########] | Progress: 388 | Time: 0.1s | ETA: --fit<>, fid</home/chun/projects/clineage-simulation/analysis/tmc-136069/tmc-003/case-13/triplets-list.raw.txt>, flg<treeReconstruction.log>, frt<resTree.tree>, frtN</home/chun/projects/clineage-simulation/analysis/tmc-136069/tmc-003/case-13/reconstructed.tmp.newick>, fsd<qqq.dat>, fst<simul.tree>, -->index=2
Read triplets from file...
Read triplets from file...Finished
N_triplets = 233, idMaxFound = 16
treeBuildBasedOnTriplets_run...
make_isTogetherInTripletAndDeleteExtraTriplets: Finished
maxCut with 14 nodes: Finished
maxCut with 13 nodes: Finished
maxCut with 6 nodes: Finished
maxCut with 7 nodes: Finished
treeBuildBasedOnTriplets_run...Finished
Saving tree to file...
Saving tree to file...Finished

                            < M A T L A B (R) >
                  Copyright 1984-2017 The MathWorks, Inc.
                   R2017a (9.2.0.538062) 64-bit (glnxa64)
                             February 23, 2017

 
To get started, type one of these: helpwin, helpdesk, or demo.
For product information, visit www.mathworks.com.
 
TreeCmp version build2

Active options:
Type of the analysis:  ref-to-all comparison mode (-r)
Metrics:
  1. MatchingCluster (mc)
  2. R-F_Cluster (rc)
  3. NodalSplitted (ns)
  4. Triples (tt)
  5. MatchingPair (mp)
  6. MAST (mt)
  7. CopheneticL2Metric (co)
Input file: /home/chun/projects/clineage-simulation/analysis/tmc-136069/tmc-003/case-13/reconstructed.newick
Output file: /home/chun/projects/clineage-simulation/analysis/tmc-136069/tmc-003/case-13/scores.raw.out
Additional options:
N - Report normalized distances.
P - Prune compared trees if needed (trees can have different leaf sets).
I - Include summary section in the output file.
-----
2018-06-19 06:53:30: Start of reading random statistics.
2018-06-19 06:53:30: End of reading random statistics.
2018-06-19 06:53:30: Start of scanning input file: /home/chun/projects/clineage-simulation/analysis/tmc-136069/tmc-003/case-13/reconstructed.newick
2018-06-19 06:53:30: End of scanning input file: /home/chun/projects/clineage-simulation/analysis/tmc-136069/tmc-003/case-13/reconstructed.newick
2018-06-19 06:53:30: 1 valid trees found in file: /home/chun/projects/clineage-simulation/analysis/tmc-136069/tmc-003/case-13/reconstructed.newick
2018-06-19 06:53:30: Start of calculation...please wait...
2018-06-19 06:53:30: 0.00% completed...
2018-06-19 06:53:30: 100.00% completed.
2018-06-19 06:53:30: End of calculation.
2018-06-19 06:53:30: Total calculation time: 34 ms.
                               metrics
No                              1.0000
RefTree                         1.0000
Tree                            1.0000
RefTree_taxa                   16.0000
Tree_taxa                      16.0000
Common_taxa                    16.0000
MatchingCluster                49.0000
MatchingCluster_toYuleAvg       0.8385
MatchingCluster_toUnifAvg       0.7589
R-F_Cluster                    11.5000
R-F_Cluster_toYuleAvg           0.8350
R-F_Cluster_toUnifAvg           0.8318
NodalSplitted                  34.3366
NodalSplitted_toYuleAvg         0.8158
NodalSplitted_toUnifAvg         0.6977
Triples                       304.0000
Triples_toYuleAvg               0.8148
Triples_toUnifAvg               0.8168
MatchingPair                   65.0000
MatchingPair_toYuleAvg          0.7960
MatchingPair_toUnifAvg          0.8121
MAST                            9.0000
MAST_toYuleAvg                  0.8942
MAST_toUnifAvg                  0.8888
CopheneticL2Metric             26.1343
CopheneticL2Metric_toYuleAvg    0.7952
CopheneticL2Metric_toUnifAvg    0.7026

                 Name         Avg  Std         Min         Max  Count
0     MatchingCluster   49.000000  0.0   49.000000   49.000000      1
1         R-F_Cluster   11.500000  0.0   11.500000   11.500000      1
2       NodalSplitted   34.336569  0.0   34.336569   34.336569      1
3             Triples  304.000000  0.0  304.000000  304.000000      1
4        MatchingPair   65.000000  0.0   65.000000   65.000000      1
5                MAST    9.000000  0.0    9.000000    9.000000      1
6  CopheneticL2Metric   26.134269  0.0   26.134269   26.134269      1
