
                            < M A T L A B (R) >
                  Copyright 1984-2017 The MathWorks, Inc.
                   R2017a (9.2.0.538062) 64-bit (glnxa64)
                             February 23, 2017

 
To get started, type one of these: helpwin, helpdesk, or demo.
For product information, visit www.mathworks.com.
 
Running "Run1", Seed: 875887
 *** Finished Simulation Run ***

config-11.json #############################################

[#.........] | Progress: 1 | Time: 0.0s | ETA: --[.#........] | Progress: 218 | Time: 0.1s | ETA: --[##########] | Progress: 244 | Time: 0.1s | ETA: --fit<>, fid</home/chun/projects/clineage-simulation/analysis/tmc/tmc-004/case-11/triplets-list.raw.txt>, flg<treeReconstruction.log>, frt<resTree.tree>, frtN</home/chun/projects/clineage-simulation/analysis/tmc/tmc-004/case-11/reconstructed.tmp.newick>, fsd<qqq.dat>, fst<simul.tree>, -->index=2
Read triplets from file...
Read triplets from file...Finished
N_triplets = 242, idMaxFound = 14
treeBuildBasedOnTriplets_run...
make_isTogetherInTripletAndDeleteExtraTriplets: Finished
maxCut with 14 nodes: Finished
maxCut with 10 nodes: Finished
maxCut with 8 nodes: Finished
treeBuildBasedOnTriplets_run...Finished
Saving tree to file...
Saving tree to file...Finished

                            < M A T L A B (R) >
                  Copyright 1984-2017 The MathWorks, Inc.
                   R2017a (9.2.0.538062) 64-bit (glnxa64)
                             February 23, 2017

 
To get started, type one of these: helpwin, helpdesk, or demo.
For product information, visit www.mathworks.com.
 
TreeCmp version build2

Active options:
Type of the analysis:  ref-to-all comparison mode (-r)
Metrics:
  1. MatchingCluster (mc)
  2. R-F_Cluster (rc)
  3. NodalSplitted (ns)
  4. Triples (tt)
  5. MatchingPair (mp)
  6. MAST (mt)
  7. CopheneticL2Metric (co)
Input file: /home/chun/projects/clineage-simulation/analysis/tmc/tmc-004/case-11/reconstructed.newick
Output file: /home/chun/projects/clineage-simulation/analysis/tmc/tmc-004/case-11/scores.raw.out
Additional options:
N - Report normalized distances.
P - Prune compared trees if needed (trees can have different leaf sets).
I - Include summary section in the output file.
-----
2018-06-18 18:38:26: Start of reading random statistics.
2018-06-18 18:38:26: End of reading random statistics.
2018-06-18 18:38:26: Start of scanning input file: /home/chun/projects/clineage-simulation/analysis/tmc/tmc-004/case-11/reconstructed.newick
2018-06-18 18:38:26: End of scanning input file: /home/chun/projects/clineage-simulation/analysis/tmc/tmc-004/case-11/reconstructed.newick
2018-06-18 18:38:26: 1 valid trees found in file: /home/chun/projects/clineage-simulation/analysis/tmc/tmc-004/case-11/reconstructed.newick
2018-06-18 18:38:26: Start of calculation...please wait...
2018-06-18 18:38:26: 0.00% completed...
2018-06-18 18:38:26: 100.00% completed.
2018-06-18 18:38:26: End of calculation.
2018-06-18 18:38:26: Total calculation time: 20 ms.
                              metrics
No                             1.0000
RefTree                        1.0000
Tree                           1.0000
RefTree_taxa                  14.0000
Tree_taxa                     14.0000
Common_taxa                   14.0000
MatchingCluster               17.0000
MatchingCluster_toYuleAvg      0.3639
MatchingCluster_toUnifAvg      0.3369
R-F_Cluster                    5.5000
R-F_Cluster_toYuleAvg          0.4671
R-F_Cluster_toUnifAvg          0.4655
NodalSplitted                 15.7797
NodalSplitted_toYuleAvg        0.4541
NodalSplitted_toUnifAvg        0.4041
Triples                       40.0000
Triples_toYuleAvg              0.1646
Triples_toUnifAvg              0.1650
MatchingPair                  13.0000
MatchingPair_toYuleAvg         0.2162
MatchingPair_toUnifAvg         0.2201
MAST                           6.0000
MAST_toYuleAvg                 0.7072
MAST_toUnifAvg                 0.7004
CopheneticL2Metric             8.4853
CopheneticL2Metric_toYuleAvg   0.3100
CopheneticL2Metric_toUnifAvg   0.2781

                 Name        Avg  Std        Min        Max  Count
0     MatchingCluster  17.000000  0.0  17.000000  17.000000      1
1         R-F_Cluster   5.500000  0.0   5.500000   5.500000      1
2       NodalSplitted  15.779734  0.0  15.779734  15.779734      1
3             Triples  40.000000  0.0  40.000000  40.000000      1
4        MatchingPair  13.000000  0.0  13.000000  13.000000      1
5                MAST   6.000000  0.0   6.000000   6.000000      1
6  CopheneticL2Metric   8.485281  0.0   8.485281   8.485281      1
