
                            < M A T L A B (R) >
                  Copyright 1984-2017 The MathWorks, Inc.
                   R2017a (9.2.0.538062) 64-bit (glnxa64)
                             February 23, 2017

 
To get started, type one of these: helpwin, helpdesk, or demo.
For product information, visit www.mathworks.com.
 
Running "Run1", Seed: 875887
 *** Finished Simulation Run ***

config-10.json #############################################

[#.........] | Progress: 1 | Time: 0.0s | ETA: --[##########] | Progress: 193 | Time: 0.0s | ETA: --fit<>, fid</home/chun/projects/clineage-simulation/analysis/tmc/tmc-004/case-10/triplets-list.raw.txt>, flg<treeReconstruction.log>, frt<resTree.tree>, frtN</home/chun/projects/clineage-simulation/analysis/tmc/tmc-004/case-10/reconstructed.tmp.newick>, fsd<qqq.dat>, fst<simul.tree>, -->index=2
Read triplets from file...
Read triplets from file...Finished
N_triplets = 189, idMaxFound = 13
treeBuildBasedOnTriplets_run...
make_isTogetherInTripletAndDeleteExtraTriplets: Finished
maxCut with 13 nodes: Finished
maxCut with 9 nodes: Finished
treeBuildBasedOnTriplets_run...Finished
Saving tree to file...
Saving tree to file...Finished

                            < M A T L A B (R) >
                  Copyright 1984-2017 The MathWorks, Inc.
                   R2017a (9.2.0.538062) 64-bit (glnxa64)
                             February 23, 2017

 
To get started, type one of these: helpwin, helpdesk, or demo.
For product information, visit www.mathworks.com.
 
TreeCmp version build2

Active options:
Type of the analysis:  ref-to-all comparison mode (-r)
Metrics:
  1. MatchingCluster (mc)
  2. R-F_Cluster (rc)
  3. NodalSplitted (ns)
  4. Triples (tt)
  5. MatchingPair (mp)
  6. MAST (mt)
  7. CopheneticL2Metric (co)
Input file: /home/chun/projects/clineage-simulation/analysis/tmc/tmc-004/case-10/reconstructed.newick
Output file: /home/chun/projects/clineage-simulation/analysis/tmc/tmc-004/case-10/scores.raw.out
Additional options:
N - Report normalized distances.
P - Prune compared trees if needed (trees can have different leaf sets).
I - Include summary section in the output file.
-----
2018-06-18 18:39:32: Start of reading random statistics.
2018-06-18 18:39:33: End of reading random statistics.
2018-06-18 18:39:33: Start of scanning input file: /home/chun/projects/clineage-simulation/analysis/tmc/tmc-004/case-10/reconstructed.newick
2018-06-18 18:39:33: End of scanning input file: /home/chun/projects/clineage-simulation/analysis/tmc/tmc-004/case-10/reconstructed.newick
2018-06-18 18:39:33: 1 valid trees found in file: /home/chun/projects/clineage-simulation/analysis/tmc/tmc-004/case-10/reconstructed.newick
2018-06-18 18:39:33: Start of calculation...please wait...
2018-06-18 18:39:33: 0.00% completed...
2018-06-18 18:39:33: 100.00% completed.
2018-06-18 18:39:33: End of calculation.
2018-06-18 18:39:33: Total calculation time: 308 ms.
                              metrics
No                             1.0000
RefTree                        1.0000
Tree                           1.0000
RefTree_taxa                  13.0000
Tree_taxa                     13.0000
Common_taxa                   13.0000
MatchingCluster               16.0000
MatchingCluster_toYuleAvg      0.3919
MatchingCluster_toUnifAvg      0.3628
R-F_Cluster                    5.5000
R-F_Cluster_toYuleAvg          0.5102
R-F_Cluster_toUnifAvg          0.5082
NodalSplitted                 15.2315
NodalSplitted_toYuleAvg        0.4974
NodalSplitted_toUnifAvg        0.4394
Triples                       27.0000
Triples_toYuleAvg              0.1413
Triples_toUnifAvg              0.1413
MatchingPair                  15.0000
MatchingPair_toYuleAvg         0.2945
MatchingPair_toUnifAvg         0.2995
MAST                           5.0000
MAST_toYuleAvg                 0.6496
MAST_toUnifAvg                 0.6439
CopheneticL2Metric             7.4162
CopheneticL2Metric_toYuleAvg   0.3057
CopheneticL2Metric_toUnifAvg   0.2776

                 Name        Avg  Std        Min        Max  Count
0     MatchingCluster  16.000000  0.0  16.000000  16.000000      1
1         R-F_Cluster   5.500000  0.0   5.500000   5.500000      1
2       NodalSplitted  15.231546  0.0  15.231546  15.231546      1
3             Triples  27.000000  0.0  27.000000  27.000000      1
4        MatchingPair  15.000000  0.0  15.000000  15.000000      1
5                MAST   5.000000  0.0   5.000000   5.000000      1
6  CopheneticL2Metric   7.416198  0.0   7.416198   7.416198      1
