
                            < M A T L A B (R) >
                  Copyright 1984-2017 The MathWorks, Inc.
                   R2017a (9.2.0.538062) 64-bit (glnxa64)
                             February 23, 2017

 
To get started, type one of these: helpwin, helpdesk, or demo.
For product information, visit www.mathworks.com.
 
Running "Run1", Seed: 875887
 *** Finished Simulation Run ***

config-09.json #############################################

[#.........] | Progress: 1 | Time: 0.0s | ETA: --[##########] | Progress: 150 | Time: 0.0s | ETA: --fit<>, fid</home/chun/projects/clineage-simulation/analysis/tmc/tmc-004/case-09/triplets-list.raw.txt>, flg<treeReconstruction.log>, frt<resTree.tree>, frtN</home/chun/projects/clineage-simulation/analysis/tmc/tmc-004/case-09/reconstructed.tmp.newick>, fsd<qqq.dat>, fst<simul.tree>, -->index=2
Read triplets from file...
Read triplets from file...Finished
N_triplets = 147, idMaxFound = 12
treeBuildBasedOnTriplets_run...
make_isTogetherInTripletAndDeleteExtraTriplets: Finished
maxCut with 9 nodes: Finished
treeBuildBasedOnTriplets_run...Finished
Saving tree to file...
Saving tree to file...Finished

                            < M A T L A B (R) >
                  Copyright 1984-2017 The MathWorks, Inc.
                   R2017a (9.2.0.538062) 64-bit (glnxa64)
                             February 23, 2017

 
To get started, type one of these: helpwin, helpdesk, or demo.
For product information, visit www.mathworks.com.
 
TreeCmp version build2

Active options:
Type of the analysis:  ref-to-all comparison mode (-r)
Metrics:
  1. MatchingCluster (mc)
  2. R-F_Cluster (rc)
  3. NodalSplitted (ns)
  4. Triples (tt)
  5. MatchingPair (mp)
  6. MAST (mt)
  7. CopheneticL2Metric (co)
Input file: /home/chun/projects/clineage-simulation/analysis/tmc/tmc-004/case-09/reconstructed.newick
Output file: /home/chun/projects/clineage-simulation/analysis/tmc/tmc-004/case-09/scores.raw.out
Additional options:
N - Report normalized distances.
P - Prune compared trees if needed (trees can have different leaf sets).
I - Include summary section in the output file.
-----
2018-06-18 18:38:27: Start of reading random statistics.
2018-06-18 18:38:28: End of reading random statistics.
2018-06-18 18:38:28: Start of scanning input file: /home/chun/projects/clineage-simulation/analysis/tmc/tmc-004/case-09/reconstructed.newick
2018-06-18 18:38:28: End of scanning input file: /home/chun/projects/clineage-simulation/analysis/tmc/tmc-004/case-09/reconstructed.newick
2018-06-18 18:38:28: 1 valid trees found in file: /home/chun/projects/clineage-simulation/analysis/tmc/tmc-004/case-09/reconstructed.newick
2018-06-18 18:38:28: Start of calculation...please wait...
2018-06-18 18:38:28: 0.00% completed...
2018-06-18 18:38:28: 100.00% completed.
2018-06-18 18:38:28: End of calculation.
2018-06-18 18:38:28: Total calculation time: 22 ms.
                              metrics
No                             1.0000
RefTree                        1.0000
Tree                           1.0000
RefTree_taxa                  12.0000
Tree_taxa                     12.0000
Common_taxa                   12.0000
MatchingCluster               12.0000
MatchingCluster_toYuleAvg      0.3380
MatchingCluster_toUnifAvg      0.3174
R-F_Cluster                    4.0000
R-F_Cluster_toYuleAvg          0.4103
R-F_Cluster_toUnifAvg          0.4086
NodalSplitted                 12.4097
NodalSplitted_toYuleAvg        0.4556
NodalSplitted_toUnifAvg        0.4147
Triples                       24.0000
Triples_toYuleAvg              0.1630
Triples_toUnifAvg              0.1636
MatchingPair                  12.0000
MatchingPair_toYuleAvg         0.2837
MatchingPair_toUnifAvg         0.2875
MAST                           4.0000
MAST_toYuleAvg                 0.5805
MAST_toUnifAvg                 0.5748
CopheneticL2Metric             6.4807
CopheneticL2Metric_toYuleAvg   0.2989
CopheneticL2Metric_toUnifAvg   0.2751

                 Name        Avg  Std        Min        Max  Count
0     MatchingCluster  12.000000  0.0  12.000000  12.000000      1
1         R-F_Cluster   4.000000  0.0   4.000000   4.000000      1
2       NodalSplitted  12.409674  0.0  12.409674  12.409674      1
3             Triples  24.000000  0.0  24.000000  24.000000      1
4        MatchingPair  12.000000  0.0  12.000000  12.000000      1
5                MAST   4.000000  0.0   4.000000   4.000000      1
6  CopheneticL2Metric   6.480741  0.0   6.480741   6.480741      1
