
                            < M A T L A B (R) >
                  Copyright 1984-2017 The MathWorks, Inc.
                   R2017a (9.2.0.538062) 64-bit (glnxa64)
                             February 23, 2017

 
To get started, type one of these: helpwin, helpdesk, or demo.
For product information, visit www.mathworks.com.
 
Running "Run1", Seed: 875887
 *** Finished Simulation Run ***

config-14.json #############################################

[#.........] | Progress: 1 | Time: 0.0s | ETA: --[.#........] | Progress: 187 | Time: 0.1s | ETA: --[..#.......] | Progress: 367 | Time: 0.1s | ETA: --[##########] | Progress: 479 | Time: 0.1s | ETA: --fit<>, fid</home/chun/projects/clineage-simulation/analysis/tmc/tmc-004/case-14/triplets-list.raw.txt>, flg<treeReconstruction.log>, frt<resTree.tree>, frtN</home/chun/projects/clineage-simulation/analysis/tmc/tmc-004/case-14/reconstructed.tmp.newick>, fsd<qqq.dat>, fst<simul.tree>, -->index=2
Read triplets from file...
Read triplets from file...Finished
N_triplets = 474, idMaxFound = 17
treeBuildBasedOnTriplets_run...
make_isTogetherInTripletAndDeleteExtraTriplets: Finished
maxCut with 17 nodes: Finished
maxCut with 12 nodes: Finished
maxCut with 7 nodes: Finished
maxCut with 5 nodes: Finished
treeBuildBasedOnTriplets_run...Finished
Saving tree to file...
Saving tree to file...Finished

                            < M A T L A B (R) >
                  Copyright 1984-2017 The MathWorks, Inc.
                   R2017a (9.2.0.538062) 64-bit (glnxa64)
                             February 23, 2017

 
To get started, type one of these: helpwin, helpdesk, or demo.
For product information, visit www.mathworks.com.
 
TreeCmp version build2

Active options:
Type of the analysis:  ref-to-all comparison mode (-r)
Metrics:
  1. MatchingCluster (mc)
  2. R-F_Cluster (rc)
  3. NodalSplitted (ns)
  4. Triples (tt)
  5. MatchingPair (mp)
  6. MAST (mt)
  7. CopheneticL2Metric (co)
Input file: /home/chun/projects/clineage-simulation/analysis/tmc/tmc-004/case-14/reconstructed.newick
Output file: /home/chun/projects/clineage-simulation/analysis/tmc/tmc-004/case-14/scores.raw.out
Additional options:
N - Report normalized distances.
P - Prune compared trees if needed (trees can have different leaf sets).
I - Include summary section in the output file.
-----
2018-06-18 18:38:31: Start of reading random statistics.
2018-06-18 18:38:31: End of reading random statistics.
2018-06-18 18:38:31: Start of scanning input file: /home/chun/projects/clineage-simulation/analysis/tmc/tmc-004/case-14/reconstructed.newick
2018-06-18 18:38:31: End of scanning input file: /home/chun/projects/clineage-simulation/analysis/tmc/tmc-004/case-14/reconstructed.newick
2018-06-18 18:38:31: 1 valid trees found in file: /home/chun/projects/clineage-simulation/analysis/tmc/tmc-004/case-14/reconstructed.newick
2018-06-18 18:38:31: Start of calculation...please wait...
2018-06-18 18:38:31: 0.00% completed...
2018-06-18 18:38:31: 100.00% completed.
2018-06-18 18:38:31: End of calculation.
2018-06-18 18:38:31: Total calculation time: 29 ms.
                              metrics
No                             1.0000
RefTree                        1.0000
Tree                           1.0000
RefTree_taxa                  17.0000
Tree_taxa                     17.0000
Common_taxa                   17.0000
MatchingCluster               21.0000
MatchingCluster_toYuleAvg      0.3249
MatchingCluster_toUnifAvg      0.2889
R-F_Cluster                    6.5000
R-F_Cluster_toYuleAvg          0.4400
R-F_Cluster_toUnifAvg          0.4379
NodalSplitted                 20.0998
NodalSplitted_toYuleAvg        0.4385
NodalSplitted_toUnifAvg        0.3671
Triples                       91.0000
Triples_toYuleAvg              0.2004
Triples_toUnifAvg              0.2001
MatchingPair                  38.0000
MatchingPair_toYuleAvg         0.4067
MatchingPair_toUnifAvg         0.4131
MAST                           7.0000
MAST_toYuleAvg                 0.6437
MAST_toUnifAvg                 0.6394
CopheneticL2Metric             9.7980
CopheneticL2Metric_toYuleAvg   0.2728
CopheneticL2Metric_toUnifAvg   0.2370

                 Name        Avg  Std        Min        Max  Count
0     MatchingCluster  21.000000  0.0  21.000000  21.000000      1
1         R-F_Cluster   6.500000  0.0   6.500000   6.500000      1
2       NodalSplitted  20.099751  0.0  20.099751  20.099751      1
3             Triples  91.000000  0.0  91.000000  91.000000      1
4        MatchingPair  38.000000  0.0  38.000000  38.000000      1
5                MAST   7.000000  0.0   7.000000   7.000000      1
6  CopheneticL2Metric   9.797959  0.0   9.797959   9.797959      1
