
                            < M A T L A B (R) >
                  Copyright 1984-2017 The MathWorks, Inc.
                   R2017a (9.2.0.538062) 64-bit (glnxa64)
                             February 23, 2017

 
To get started, type one of these: helpwin, helpdesk, or demo.
For product information, visit www.mathworks.com.
 
Running "Run1", Seed: 875887
 *** Finished Simulation Run ***

config-04.json #############################################

[#.........] | Progress: 1 | Time: 0.0s | ETA: --[##########] | Progress: 26 | Time: 0.0s | ETA: --fit<>, fid</home/chun/projects/clineage-simulation/analysis/tmc/tmc-001/case-04/triplets-list.raw.txt>, flg<treeReconstruction.log>, frt<resTree.tree>, frtN</home/chun/projects/clineage-simulation/analysis/tmc/tmc-001/case-04/reconstructed.tmp.newick>, fsd<qqq.dat>, fst<simul.tree>, -->index=2
Read triplets from file...
Read triplets from file...Finished
N_triplets = 18, idMaxFound = 7
treeBuildBasedOnTriplets_run...
make_isTogetherInTripletAndDeleteExtraTriplets: Finished
maxCut with 7 nodes: Finished
treeBuildBasedOnTriplets_run...Finished
Saving tree to file...
Saving tree to file...Finished

                            < M A T L A B (R) >
                  Copyright 1984-2017 The MathWorks, Inc.
                   R2017a (9.2.0.538062) 64-bit (glnxa64)
                             February 23, 2017

 
To get started, type one of these: helpwin, helpdesk, or demo.
For product information, visit www.mathworks.com.
 
TreeCmp version build2

Active options:
Type of the analysis:  ref-to-all comparison mode (-r)
Metrics:
  1. MatchingCluster (mc)
  2. R-F_Cluster (rc)
  3. NodalSplitted (ns)
  4. Triples (tt)
  5. MatchingPair (mp)
  6. MAST (mt)
  7. CopheneticL2Metric (co)
Input file: /home/chun/projects/clineage-simulation/analysis/tmc/tmc-001/case-04/reconstructed.newick
Output file: /home/chun/projects/clineage-simulation/analysis/tmc/tmc-001/case-04/scores.raw.out
Additional options:
N - Report normalized distances.
P - Prune compared trees if needed (trees can have different leaf sets).
I - Include summary section in the output file.
-----
2018-06-18 18:38:28: Start of reading random statistics.
2018-06-18 18:38:28: End of reading random statistics.
2018-06-18 18:38:28: Start of scanning input file: /home/chun/projects/clineage-simulation/analysis/tmc/tmc-001/case-04/reconstructed.newick
2018-06-18 18:38:28: End of scanning input file: /home/chun/projects/clineage-simulation/analysis/tmc/tmc-001/case-04/reconstructed.newick
2018-06-18 18:38:28: 1 valid trees found in file: /home/chun/projects/clineage-simulation/analysis/tmc/tmc-001/case-04/reconstructed.newick
2018-06-18 18:38:28: Start of calculation...please wait...
2018-06-18 18:38:28: 0.00% completed...
2018-06-18 18:38:28: 100.00% completed.
2018-06-18 18:38:28: End of calculation.
2018-06-18 18:38:28: Total calculation time: 25 ms.
                              metrics
No                             1.0000
RefTree                        1.0000
Tree                           1.0000
RefTree_taxa                   7.0000
Tree_taxa                      7.0000
Common_taxa                    7.0000
MatchingCluster               12.0000
MatchingCluster_toYuleAvg      0.9510
MatchingCluster_toUnifAvg      0.9472
R-F_Cluster                    4.5000
R-F_Cluster_toYuleAvg          0.9579
R-F_Cluster_toUnifAvg          0.9611
NodalSplitted                 10.1980
NodalSplitted_toYuleAvg        0.9296
NodalSplitted_toUnifAvg        0.9258
Triples                       19.0000
Triples_toYuleAvg              0.8103
Triples_toUnifAvg              0.8220
MatchingPair                  10.0000
MatchingPair_toYuleAvg         0.8810
MatchingPair_toUnifAvg         0.8945
MAST                           3.0000
MAST_toYuleAvg                 0.9425
MAST_toUnifAvg                 0.9325
CopheneticL2Metric             8.8882
CopheneticL2Metric_toYuleAvg   0.9725
CopheneticL2Metric_toUnifAvg   0.9530

                 Name        Avg  Std        Min        Max  Count
0     MatchingCluster  12.000000  0.0  12.000000  12.000000      1
1         R-F_Cluster   4.500000  0.0   4.500000   4.500000      1
2       NodalSplitted  10.198039  0.0  10.198039  10.198039      1
3             Triples  19.000000  0.0  19.000000  19.000000      1
4        MatchingPair  10.000000  0.0  10.000000  10.000000      1
5                MAST   3.000000  0.0   3.000000   3.000000      1
6  CopheneticL2Metric   8.888194  0.0   8.888194   8.888194      1
