
                            < M A T L A B (R) >
                  Copyright 1984-2017 The MathWorks, Inc.
                   R2017a (9.2.0.538062) 64-bit (glnxa64)
                             February 23, 2017

 
To get started, type one of these: helpwin, helpdesk, or demo.
For product information, visit www.mathworks.com.
 
Running "Run1", Seed: 875887
 *** Finished Simulation Run ***

config-14.json #############################################

[#.........] | Progress: 1 | Time: 0.0s | ETA: --[.#........] | Progress: 321 | Time: 0.1s | ETA: --[##########] | Progress: 476 | Time: 0.1s | ETA: --fit<>, fid</home/chun/projects/clineage-simulation/analysis/tmc/tmc-001/case-14/triplets-list.raw.txt>, flg<treeReconstruction.log>, frt<resTree.tree>, frtN</home/chun/projects/clineage-simulation/analysis/tmc/tmc-001/case-14/reconstructed.tmp.newick>, fsd<qqq.dat>, fst<simul.tree>, -->index=2
Read triplets from file...
Read triplets from file...Finished
N_triplets = 393, idMaxFound = 17
treeBuildBasedOnTriplets_run...
make_isTogetherInTripletAndDeleteExtraTriplets: Finished
maxCut with 17 nodes: Finished
maxCut with 16 nodes: Finished
treeBuildBasedOnTriplets_run...Finished
Saving tree to file...
Saving tree to file...Finished

                            < M A T L A B (R) >
                  Copyright 1984-2017 The MathWorks, Inc.
                   R2017a (9.2.0.538062) 64-bit (glnxa64)
                             February 23, 2017

 
To get started, type one of these: helpwin, helpdesk, or demo.
For product information, visit www.mathworks.com.
 
TreeCmp version build2

Active options:
Type of the analysis:  ref-to-all comparison mode (-r)
Metrics:
  1. MatchingCluster (mc)
  2. R-F_Cluster (rc)
  3. NodalSplitted (ns)
  4. Triples (tt)
  5. MatchingPair (mp)
  6. MAST (mt)
  7. CopheneticL2Metric (co)
Input file: /home/chun/projects/clineage-simulation/analysis/tmc/tmc-001/case-14/reconstructed.newick
Output file: /home/chun/projects/clineage-simulation/analysis/tmc/tmc-001/case-14/scores.raw.out
Additional options:
N - Report normalized distances.
P - Prune compared trees if needed (trees can have different leaf sets).
I - Include summary section in the output file.
-----
2018-06-18 18:27:22: Start of reading random statistics.
2018-06-18 18:27:22: End of reading random statistics.
2018-06-18 18:27:22: Start of scanning input file: /home/chun/projects/clineage-simulation/analysis/tmc/tmc-001/case-14/reconstructed.newick
2018-06-18 18:27:22: End of scanning input file: /home/chun/projects/clineage-simulation/analysis/tmc/tmc-001/case-14/reconstructed.newick
2018-06-18 18:27:22: 1 valid trees found in file: /home/chun/projects/clineage-simulation/analysis/tmc/tmc-001/case-14/reconstructed.newick
2018-06-18 18:27:22: Start of calculation...please wait...
2018-06-18 18:27:22: 0.00% completed...
2018-06-18 18:27:22: 100.00% completed.
2018-06-18 18:27:22: End of calculation.
2018-06-18 18:27:22: Total calculation time: 23 ms.
                               metrics
No                              1.0000
RefTree                         1.0000
Tree                            1.0000
RefTree_taxa                   17.0000
Tree_taxa                      17.0000
Common_taxa                    17.0000
MatchingCluster                48.0000
MatchingCluster_toYuleAvg       0.7426
MatchingCluster_toUnifAvg       0.6603
R-F_Cluster                    12.0000
R-F_Cluster_toYuleAvg           0.8123
R-F_Cluster_toUnifAvg           0.8084
NodalSplitted                  31.7805
NodalSplitted_toYuleAvg         0.6934
NodalSplitted_toUnifAvg         0.5804
Triples                       359.0000
Triples_toYuleAvg               0.7907
Triples_toUnifAvg               0.7894
MatchingPair                   78.0000
MatchingPair_toYuleAvg          0.8348
MatchingPair_toUnifAvg          0.8479
MAST                            9.0000
MAST_toYuleAvg                  0.8277
MAST_toUnifAvg                  0.8221
CopheneticL2Metric             20.1246
CopheneticL2Metric_toYuleAvg    0.5603
CopheneticL2Metric_toUnifAvg    0.4868

                 Name         Avg  Std         Min         Max  Count
0     MatchingCluster   48.000000  0.0   48.000000   48.000000      1
1         R-F_Cluster   12.000000  0.0   12.000000   12.000000      1
2       NodalSplitted   31.780497  0.0   31.780497   31.780497      1
3             Triples  359.000000  0.0  359.000000  359.000000      1
4        MatchingPair   78.000000  0.0   78.000000   78.000000      1
5                MAST    9.000000  0.0    9.000000    9.000000      1
6  CopheneticL2Metric   20.124612  0.0   20.124612   20.124612      1
