
                            < M A T L A B (R) >
                  Copyright 1984-2017 The MathWorks, Inc.
                   R2017a (9.2.0.538062) 64-bit (glnxa64)
                             February 23, 2017

 
To get started, type one of these: helpwin, helpdesk, or demo.
For product information, visit www.mathworks.com.
 
Running "Run1", Seed: 875887
 *** Finished Simulation Run ***

config-19.json #############################################

[#.........] | Progress: 1 | Time: 0.0s | ETA: --[.#........] | Progress: 446 | Time: 0.1s | ETA: --[..#.......] | Progress: 851 | Time: 0.1s | ETA: --[##########] | Progress: 1035 | Time: 0.1s | ETA: --fit<>, fid</home/chun/projects/clineage-simulation/analysis/tmc/tmc-001/case-19/triplets-list.raw.txt>, flg<treeReconstruction.log>, frt<resTree.tree>, frtN</home/chun/projects/clineage-simulation/analysis/tmc/tmc-001/case-19/reconstructed.tmp.newick>, fsd<qqq.dat>, fst<simul.tree>, -->index=2
Read triplets from file...
Read triplets from file...Finished
N_triplets = 883, idMaxFound = 22
treeBuildBasedOnTriplets_run...
make_isTogetherInTripletAndDeleteExtraTriplets: Finished
maxCut with 22 nodes: Finished
treeBuildBasedOnTriplets_run...Finished
Saving tree to file...
Saving tree to file...Finished

                            < M A T L A B (R) >
                  Copyright 1984-2017 The MathWorks, Inc.
                   R2017a (9.2.0.538062) 64-bit (glnxa64)
                             February 23, 2017

 
To get started, type one of these: helpwin, helpdesk, or demo.
For product information, visit www.mathworks.com.
 
TreeCmp version build2

Active options:
Type of the analysis:  ref-to-all comparison mode (-r)
Metrics:
  1. MatchingCluster (mc)
  2. R-F_Cluster (rc)
  3. NodalSplitted (ns)
  4. Triples (tt)
  5. MatchingPair (mp)
  6. MAST (mt)
  7. CopheneticL2Metric (co)
Input file: /home/chun/projects/clineage-simulation/analysis/tmc/tmc-001/case-19/reconstructed.newick
Output file: /home/chun/projects/clineage-simulation/analysis/tmc/tmc-001/case-19/scores.raw.out
Additional options:
N - Report normalized distances.
P - Prune compared trees if needed (trees can have different leaf sets).
I - Include summary section in the output file.
-----
2018-06-18 18:38:27: Start of reading random statistics.
2018-06-18 18:38:27: End of reading random statistics.
2018-06-18 18:38:27: Start of scanning input file: /home/chun/projects/clineage-simulation/analysis/tmc/tmc-001/case-19/reconstructed.newick
2018-06-18 18:38:27: End of scanning input file: /home/chun/projects/clineage-simulation/analysis/tmc/tmc-001/case-19/reconstructed.newick
2018-06-18 18:38:27: 1 valid trees found in file: /home/chun/projects/clineage-simulation/analysis/tmc/tmc-001/case-19/reconstructed.newick
2018-06-18 18:38:27: Start of calculation...please wait...
2018-06-18 18:38:27: 0.00% completed...
2018-06-18 18:38:27: 100.00% completed.
2018-06-18 18:38:27: End of calculation.
2018-06-18 18:38:27: Total calculation time: 29 ms.
                               metrics
No                              1.0000
RefTree                         1.0000
Tree                            1.0000
RefTree_taxa                   22.0000
Tree_taxa                      22.0000
Common_taxa                    22.0000
MatchingCluster                81.0000
MatchingCluster_toYuleAvg       0.8196
MatchingCluster_toUnifAvg       0.6994
R-F_Cluster                    14.0000
R-F_Cluster_toYuleAvg           0.7081
R-F_Cluster_toUnifAvg           0.7050
NodalSplitted                  54.3047
NodalSplitted_toYuleAvg         0.8152
NodalSplitted_toUnifAvg         0.6383
Triples                       905.0000
Triples_toYuleAvg               0.8820
Triples_toUnifAvg               0.8793
MatchingPair                  155.0000
MatchingPair_toYuleAvg          0.9409
MatchingPair_toUnifAvg          0.9572
MAST                           15.0000
MAST_toYuleAvg                  1.0001
MAST_toUnifAvg                  0.9929
CopheneticL2Metric             37.0540
CopheneticL2Metric_toYuleAvg    0.7290
CopheneticL2Metric_toUnifAvg    0.5905

                 Name         Avg  Std         Min         Max  Count
0     MatchingCluster   81.000000  0.0   81.000000   81.000000      1
1         R-F_Cluster   14.000000  0.0   14.000000   14.000000      1
2       NodalSplitted   54.304696  0.0   54.304696   54.304696      1
3             Triples  905.000000  0.0  905.000000  905.000000      1
4        MatchingPair  155.000000  0.0  155.000000  155.000000      1
5                MAST   15.000000  0.0   15.000000   15.000000      1
6  CopheneticL2Metric   37.054015  0.0   37.054015   37.054015      1
