
                            < M A T L A B (R) >
                  Copyright 1984-2017 The MathWorks, Inc.
                   R2017a (9.2.0.538062) 64-bit (glnxa64)
                             February 23, 2017

 
To get started, type one of these: helpwin, helpdesk, or demo.
For product information, visit www.mathworks.com.
 
Running "Run1", Seed: 875887
 *** Finished Simulation Run ***

config-17.json #############################################

[#.........] | Progress: 1 | Time: 0.0s | ETA: --[.#........] | Progress: 469 | Time: 0.1s | ETA: --[##########] | Progress: 787 | Time: 0.1s | ETA: --fit<>, fid</home/chun/projects/clineage-simulation/analysis/tmc/tmc-001/case-17/triplets-list.raw.txt>, flg<treeReconstruction.log>, frt<resTree.tree>, frtN</home/chun/projects/clineage-simulation/analysis/tmc/tmc-001/case-17/reconstructed.tmp.newick>, fsd<qqq.dat>, fst<simul.tree>, -->index=2
Read triplets from file...
Read triplets from file...Finished
N_triplets = 670, idMaxFound = 20
treeBuildBasedOnTriplets_run...
make_isTogetherInTripletAndDeleteExtraTriplets: Finished
maxCut with 20 nodes: Finished
maxCut with 19 nodes: Finished
treeBuildBasedOnTriplets_run...Finished
Saving tree to file...
Saving tree to file...Finished

                            < M A T L A B (R) >
                  Copyright 1984-2017 The MathWorks, Inc.
                   R2017a (9.2.0.538062) 64-bit (glnxa64)
                             February 23, 2017

 
To get started, type one of these: helpwin, helpdesk, or demo.
For product information, visit www.mathworks.com.
 
TreeCmp version build2

Active options:
Type of the analysis:  ref-to-all comparison mode (-r)
Metrics:
  1. MatchingCluster (mc)
  2. R-F_Cluster (rc)
  3. NodalSplitted (ns)
  4. Triples (tt)
  5. MatchingPair (mp)
  6. MAST (mt)
  7. CopheneticL2Metric (co)
Input file: /home/chun/projects/clineage-simulation/analysis/tmc/tmc-001/case-17/reconstructed.newick
Output file: /home/chun/projects/clineage-simulation/analysis/tmc/tmc-001/case-17/scores.raw.out
Additional options:
N - Report normalized distances.
P - Prune compared trees if needed (trees can have different leaf sets).
I - Include summary section in the output file.
-----
2018-06-18 18:38:25: Start of reading random statistics.
2018-06-18 18:38:25: End of reading random statistics.
2018-06-18 18:38:25: Start of scanning input file: /home/chun/projects/clineage-simulation/analysis/tmc/tmc-001/case-17/reconstructed.newick
2018-06-18 18:38:25: End of scanning input file: /home/chun/projects/clineage-simulation/analysis/tmc/tmc-001/case-17/reconstructed.newick
2018-06-18 18:38:25: 1 valid trees found in file: /home/chun/projects/clineage-simulation/analysis/tmc/tmc-001/case-17/reconstructed.newick
2018-06-18 18:38:25: Start of calculation...please wait...
2018-06-18 18:38:25: 0.00% completed...
2018-06-18 18:38:25: 100.00% completed.
2018-06-18 18:38:25: End of calculation.
2018-06-18 18:38:25: Total calculation time: 24 ms.
                               metrics
No                              1.0000
RefTree                         1.0000
Tree                            1.0000
RefTree_taxa                   20.0000
Tree_taxa                      20.0000
Common_taxa                    20.0000
MatchingCluster                57.0000
MatchingCluster_toYuleAvg       0.6691
MatchingCluster_toUnifAvg       0.5859
R-F_Cluster                    13.5000
R-F_Cluster_toYuleAvg           0.7601
R-F_Cluster_toUnifAvg           0.7564
NodalSplitted                  40.8044
NodalSplitted_toYuleAvg         0.7012
NodalSplitted_toUnifAvg         0.5678
Triples                       556.0000
Triples_toYuleAvg               0.7273
Triples_toUnifAvg               0.7320
MatchingPair                  104.0000
MatchingPair_toYuleAvg          0.7730
MatchingPair_toUnifAvg          0.7905
MAST                           12.0000
MAST_toYuleAvg                  0.8995
MAST_toUnifAvg                  0.8919
CopheneticL2Metric             23.5160
CopheneticL2Metric_toYuleAvg    0.5295
CopheneticL2Metric_toUnifAvg    0.4329

                 Name         Avg  Std         Min         Max  Count
0     MatchingCluster   57.000000  0.0   57.000000   57.000000      1
1         R-F_Cluster   13.500000  0.0   13.500000   13.500000      1
2       NodalSplitted   40.804412  0.0   40.804412   40.804412      1
3             Triples  556.000000  0.0  556.000000  556.000000      1
4        MatchingPair  104.000000  0.0  104.000000  104.000000      1
5                MAST   12.000000  0.0   12.000000   12.000000      1
6  CopheneticL2Metric   23.515952  0.0   23.515952   23.515952      1
