
                            < M A T L A B (R) >
                  Copyright 1984-2017 The MathWorks, Inc.
                   R2017a (9.2.0.538062) 64-bit (glnxa64)
                             February 23, 2017

 
To get started, type one of these: helpwin, helpdesk, or demo.
For product information, visit www.mathworks.com.
 
Running "Run1", Seed: 875887
 *** Finished Simulation Run ***

config-12.json #############################################

[#.........] | Progress: 1 | Time: 0.0s | ETA: --[##########] | Progress: 309 | Time: 0.0s | ETA: --fit<>, fid</home/chun/projects/clineage-simulation/analysis/tmc/tmc-001/case-12/triplets-list.raw.txt>, flg<treeReconstruction.log>, frt<resTree.tree>, frtN</home/chun/projects/clineage-simulation/analysis/tmc/tmc-001/case-12/reconstructed.tmp.newick>, fsd<qqq.dat>, fst<simul.tree>, -->index=2
Read triplets from file...
Read triplets from file...Finished
N_triplets = 255, idMaxFound = 15
treeBuildBasedOnTriplets_run...
make_isTogetherInTripletAndDeleteExtraTriplets: Finished
maxCut with 15 nodes: Finished
maxCut with 14 nodes: Finished
treeBuildBasedOnTriplets_run...Finished
Saving tree to file...
Saving tree to file...Finished

                            < M A T L A B (R) >
                  Copyright 1984-2017 The MathWorks, Inc.
                   R2017a (9.2.0.538062) 64-bit (glnxa64)
                             February 23, 2017

 
To get started, type one of these: helpwin, helpdesk, or demo.
For product information, visit www.mathworks.com.
 
TreeCmp version build2

Active options:
Type of the analysis:  ref-to-all comparison mode (-r)
Metrics:
  1. MatchingCluster (mc)
  2. R-F_Cluster (rc)
  3. NodalSplitted (ns)
  4. Triples (tt)
  5. MatchingPair (mp)
  6. MAST (mt)
  7. CopheneticL2Metric (co)
Input file: /home/chun/projects/clineage-simulation/analysis/tmc/tmc-001/case-12/reconstructed.newick
Output file: /home/chun/projects/clineage-simulation/analysis/tmc/tmc-001/case-12/scores.raw.out
Additional options:
N - Report normalized distances.
P - Prune compared trees if needed (trees can have different leaf sets).
I - Include summary section in the output file.
-----
2018-06-18 18:27:25: Start of reading random statistics.
2018-06-18 18:27:25: End of reading random statistics.
2018-06-18 18:27:25: Start of scanning input file: /home/chun/projects/clineage-simulation/analysis/tmc/tmc-001/case-12/reconstructed.newick
2018-06-18 18:27:25: End of scanning input file: /home/chun/projects/clineage-simulation/analysis/tmc/tmc-001/case-12/reconstructed.newick
2018-06-18 18:27:25: 1 valid trees found in file: /home/chun/projects/clineage-simulation/analysis/tmc/tmc-001/case-12/reconstructed.newick
2018-06-18 18:27:25: Start of calculation...please wait...
2018-06-18 18:27:25: 0.00% completed...
2018-06-18 18:27:25: 100.00% completed.
2018-06-18 18:27:25: End of calculation.
2018-06-18 18:27:25: Total calculation time: 21 ms.
                               metrics
No                              1.0000
RefTree                         1.0000
Tree                            1.0000
RefTree_taxa                   15.0000
Tree_taxa                      15.0000
Common_taxa                    15.0000
MatchingCluster                40.0000
MatchingCluster_toYuleAvg       0.7728
MatchingCluster_toUnifAvg       0.6961
R-F_Cluster                    10.0000
R-F_Cluster_toYuleAvg           0.7846
R-F_Cluster_toUnifAvg           0.7802
NodalSplitted                  29.2575
NodalSplitted_toYuleAvg         0.7727
NodalSplitted_toUnifAvg         0.6653
Triples                       229.0000
Triples_toYuleAvg               0.7588
Triples_toUnifAvg               0.7565
MatchingPair                   59.0000
MatchingPair_toYuleAvg          0.8388
MatchingPair_toUnifAvg          0.8505
MAST                            8.0000
MAST_toYuleAvg                  0.8666
MAST_toUnifAvg                  0.8533
CopheneticL2Metric             18.7350
CopheneticL2Metric_toYuleAvg    0.6252
CopheneticL2Metric_toUnifAvg    0.5531

                 Name         Avg  Std         Min         Max  Count
0     MatchingCluster   40.000000  0.0   40.000000   40.000000      1
1         R-F_Cluster   10.000000  0.0   10.000000   10.000000      1
2       NodalSplitted   29.257478  0.0   29.257478   29.257478      1
3             Triples  229.000000  0.0  229.000000  229.000000      1
4        MatchingPair   59.000000  0.0   59.000000   59.000000      1
5                MAST    8.000000  0.0    8.000000    8.000000      1
6  CopheneticL2Metric   18.734994  0.0   18.734994   18.734994      1
