
                            < M A T L A B (R) >
                  Copyright 1984-2017 The MathWorks, Inc.
                   R2017a (9.2.0.538062) 64-bit (glnxa64)
                             February 23, 2017

 
To get started, type one of these: helpwin, helpdesk, or demo.
For product information, visit www.mathworks.com.
 
Running "Run1", Seed: 875887
 *** Finished Simulation Run ***

config-05.json #############################################

[#.........] | Progress: 1 | Time: 0.0s | ETA: --[##########] | Progress: 39 | Time: 0.0s | ETA: --fit<>, fid</home/chun/projects/clineage-simulation/analysis/tmc/tmc-001/case-05/triplets-list.raw.txt>, flg<treeReconstruction.log>, frt<resTree.tree>, frtN</home/chun/projects/clineage-simulation/analysis/tmc/tmc-001/case-05/reconstructed.tmp.newick>, fsd<qqq.dat>, fst<simul.tree>, -->index=2
Read triplets from file...
Read triplets from file...Finished
N_triplets = 26, idMaxFound = 8
treeBuildBasedOnTriplets_run...
make_isTogetherInTripletAndDeleteExtraTriplets: Finished
maxCut with 8 nodes: Finished
treeBuildBasedOnTriplets_run...Finished
Saving tree to file...
Saving tree to file...Finished

                            < M A T L A B (R) >
                  Copyright 1984-2017 The MathWorks, Inc.
                   R2017a (9.2.0.538062) 64-bit (glnxa64)
                             February 23, 2017

 
To get started, type one of these: helpwin, helpdesk, or demo.
For product information, visit www.mathworks.com.
 
TreeCmp version build2

Active options:
Type of the analysis:  ref-to-all comparison mode (-r)
Metrics:
  1. MatchingCluster (mc)
  2. R-F_Cluster (rc)
  3. NodalSplitted (ns)
  4. Triples (tt)
  5. MatchingPair (mp)
  6. MAST (mt)
  7. CopheneticL2Metric (co)
Input file: /home/chun/projects/clineage-simulation/analysis/tmc/tmc-001/case-05/reconstructed.newick
Output file: /home/chun/projects/clineage-simulation/analysis/tmc/tmc-001/case-05/scores.raw.out
Additional options:
N - Report normalized distances.
P - Prune compared trees if needed (trees can have different leaf sets).
I - Include summary section in the output file.
-----
2018-06-18 18:27:24: Start of reading random statistics.
2018-06-18 18:27:24: End of reading random statistics.
2018-06-18 18:27:24: Start of scanning input file: /home/chun/projects/clineage-simulation/analysis/tmc/tmc-001/case-05/reconstructed.newick
2018-06-18 18:27:24: End of scanning input file: /home/chun/projects/clineage-simulation/analysis/tmc/tmc-001/case-05/reconstructed.newick
2018-06-18 18:27:24: 1 valid trees found in file: /home/chun/projects/clineage-simulation/analysis/tmc/tmc-001/case-05/reconstructed.newick
2018-06-18 18:27:24: Start of calculation...please wait...
2018-06-18 18:27:24: 0.00% completed...
2018-06-18 18:27:24: 100.00% completed.
2018-06-18 18:27:24: End of calculation.
2018-06-18 18:27:24: Total calculation time: 68 ms.
                              metrics
No                             1.0000
RefTree                        1.0000
Tree                           1.0000
RefTree_taxa                   8.0000
Tree_taxa                      8.0000
Common_taxa                    8.0000
MatchingCluster               14.0000
MatchingCluster_toYuleAvg      0.8546
MatchingCluster_toUnifAvg      0.8227
R-F_Cluster                    5.0000
R-F_Cluster_toYuleAvg          0.8749
R-F_Cluster_toUnifAvg          0.8676
NodalSplitted                 10.8628
NodalSplitted_toYuleAvg        0.7916
NodalSplitted_toUnifAvg        0.7512
Triples                       29.0000
Triples_toYuleAvg              0.7838
Triples_toUnifAvg              0.7671
MatchingPair                  14.0000
MatchingPair_toYuleAvg         0.8824
MatchingPair_toUnifAvg         0.8792
MAST                           3.0000
MAST_toYuleAvg                 0.7702
MAST_toUnifAvg                 0.7647
CopheneticL2Metric             9.1652
CopheneticL2Metric_toYuleAvg   0.8044
CopheneticL2Metric_toUnifAvg   0.7764

                 Name        Avg  Std        Min        Max  Count
0     MatchingCluster  14.000000  0.0  14.000000  14.000000      1
1         R-F_Cluster   5.000000  0.0   5.000000   5.000000      1
2       NodalSplitted  10.862780  0.0  10.862780  10.862780      1
3             Triples  29.000000  0.0  29.000000  29.000000      1
4        MatchingPair  14.000000  0.0  14.000000  14.000000      1
5                MAST   3.000000  0.0   3.000000   3.000000      1
6  CopheneticL2Metric   9.165151  0.0   9.165151   9.165151      1
