
                            < M A T L A B (R) >
                  Copyright 1984-2017 The MathWorks, Inc.
                   R2017a (9.2.0.538062) 64-bit (glnxa64)
                             February 23, 2017

 
To get started, type one of these: helpwin, helpdesk, or demo.
For product information, visit www.mathworks.com.
 
Running "Run1", Seed: 875887
 *** Finished Simulation Run ***

config-16.json #############################################

[#.........] | Progress: 1 | Time: 0.0s | ETA: --[.#........] | Progress: 345 | Time: 0.1s | ETA: --[##########] | Progress: 665 | Time: 0.1s | ETA: --fit<>, fid</home/chun/projects/clineage-simulation/analysis/tmc/tmc-001/case-16/triplets-list.raw.txt>, flg<treeReconstruction.log>, frt<resTree.tree>, frtN</home/chun/projects/clineage-simulation/analysis/tmc/tmc-001/case-16/reconstructed.tmp.newick>, fsd<qqq.dat>, fst<simul.tree>, -->index=2
Read triplets from file...
Read triplets from file...Finished
N_triplets = 561, idMaxFound = 19
treeBuildBasedOnTriplets_run...
make_isTogetherInTripletAndDeleteExtraTriplets: Finished
maxCut with 19 nodes: Finished
maxCut with 18 nodes: Finished
treeBuildBasedOnTriplets_run...Finished
Saving tree to file...
Saving tree to file...Finished

                            < M A T L A B (R) >
                  Copyright 1984-2017 The MathWorks, Inc.
                   R2017a (9.2.0.538062) 64-bit (glnxa64)
                             February 23, 2017

 
To get started, type one of these: helpwin, helpdesk, or demo.
For product information, visit www.mathworks.com.
 
TreeCmp version build2

Active options:
Type of the analysis:  ref-to-all comparison mode (-r)
Metrics:
  1. MatchingCluster (mc)
  2. R-F_Cluster (rc)
  3. NodalSplitted (ns)
  4. Triples (tt)
  5. MatchingPair (mp)
  6. MAST (mt)
  7. CopheneticL2Metric (co)
Input file: /home/chun/projects/clineage-simulation/analysis/tmc/tmc-001/case-16/reconstructed.newick
Output file: /home/chun/projects/clineage-simulation/analysis/tmc/tmc-001/case-16/scores.raw.out
Additional options:
N - Report normalized distances.
P - Prune compared trees if needed (trees can have different leaf sets).
I - Include summary section in the output file.
-----
2018-06-18 18:39:32: Start of reading random statistics.
2018-06-18 18:39:33: End of reading random statistics.
2018-06-18 18:39:33: Start of scanning input file: /home/chun/projects/clineage-simulation/analysis/tmc/tmc-001/case-16/reconstructed.newick
2018-06-18 18:39:33: End of scanning input file: /home/chun/projects/clineage-simulation/analysis/tmc/tmc-001/case-16/reconstructed.newick
2018-06-18 18:39:33: 1 valid trees found in file: /home/chun/projects/clineage-simulation/analysis/tmc/tmc-001/case-16/reconstructed.newick
2018-06-18 18:39:33: Start of calculation...please wait...
2018-06-18 18:39:33: 0.00% completed...
2018-06-18 18:39:33: 100.00% completed.
2018-06-18 18:39:33: End of calculation.
2018-06-18 18:39:33: Total calculation time: 309 ms.
                               metrics
No                              1.0000
RefTree                         1.0000
Tree                            1.0000
RefTree_taxa                   19.0000
Tree_taxa                      19.0000
Common_taxa                    19.0000
MatchingCluster                49.0000
MatchingCluster_toYuleAvg       0.6319
MatchingCluster_toUnifAvg       0.5513
R-F_Cluster                    12.0000
R-F_Cluster_toYuleAvg           0.7166
R-F_Cluster_toUnifAvg           0.7129
NodalSplitted                  36.8782
NodalSplitted_toYuleAvg         0.6857
NodalSplitted_toUnifAvg         0.5590
Triples                       470.0000
Triples_toYuleAvg               0.7303
Triples_toUnifAvg               0.7268
MatchingPair                   92.0000
MatchingPair_toYuleAvg          0.7687
MatchingPair_toUnifAvg          0.7811
MAST                           10.0000
MAST_toYuleAvg                  0.7990
MAST_toUnifAvg                  0.7928
CopheneticL2Metric             20.2237
CopheneticL2Metric_toYuleAvg    0.4791
CopheneticL2Metric_toUnifAvg    0.4106

                 Name         Avg  Std         Min         Max  Count
0     MatchingCluster   49.000000  0.0   49.000000   49.000000      1
1         R-F_Cluster   12.000000  0.0   12.000000   12.000000      1
2       NodalSplitted   36.878178  0.0   36.878178   36.878178      1
3             Triples  470.000000  0.0  470.000000  470.000000      1
4        MatchingPair   92.000000  0.0   92.000000   92.000000      1
5                MAST   10.000000  0.0   10.000000   10.000000      1
6  CopheneticL2Metric   20.223748  0.0   20.223748   20.223748      1
