
                            < M A T L A B (R) >
                  Copyright 1984-2017 The MathWorks, Inc.
                   R2017a (9.2.0.538062) 64-bit (glnxa64)
                             February 23, 2017

 
To get started, type one of these: helpwin, helpdesk, or demo.
For product information, visit www.mathworks.com.
 
Running "Run1", Seed: 875887
 *** Finished Simulation Run ***

config-19.json #############################################

[#.........] | Progress: 1 | Time: 0.0s | ETA: --[.#........] | Progress: 159 | Time: 0.1s | ETA: --[..#.......] | Progress: 318 | Time: 0.1s | ETA: --[...#......] | Progress: 477 | Time: 0.2s | ETA: --[....#.....] | Progress: 628 | Time: 0.2s | ETA: --[.....#....] | Progress: 784 | Time: 0.3s | ETA: --[......#...] | Progress: 939 | Time: 0.3s | ETA: --[##########] | Progress: 1064 | Time: 0.3s | ETA: --fit<>, fid</home/chun/projects/clineage-simulation/analysis/tmc/tmc-005/case-19/triplets-list.raw.txt>, flg<treeReconstruction.log>, frt<resTree.tree>, frtN</home/chun/projects/clineage-simulation/analysis/tmc/tmc-005/case-19/reconstructed.tmp.newick>, fsd<qqq.dat>, fst<simul.tree>, -->index=2
Read triplets from file...
Read triplets from file...Finished
N_triplets = 1059, idMaxFound = 22
treeBuildBasedOnTriplets_run...
make_isTogetherInTripletAndDeleteExtraTriplets: Finished
maxCut with 22 nodes: Finished
maxCut with 18 nodes: Finished
maxCut with 17 nodes: Finished
maxCut with 15 nodes: Finished
maxCut with 11 nodes: Finished
maxCut with 10 nodes: Finished
maxCut with 8 nodes: Finished
maxCut with 6 nodes: Finished
treeBuildBasedOnTriplets_run...Finished
Saving tree to file...
Saving tree to file...Finished

                            < M A T L A B (R) >
                  Copyright 1984-2017 The MathWorks, Inc.
                   R2017a (9.2.0.538062) 64-bit (glnxa64)
                             February 23, 2017

 
To get started, type one of these: helpwin, helpdesk, or demo.
For product information, visit www.mathworks.com.
 
TreeCmp version build2

Active options:
Type of the analysis:  ref-to-all comparison mode (-r)
Metrics:
  1. MatchingCluster (mc)
  2. R-F_Cluster (rc)
  3. NodalSplitted (ns)
  4. Triples (tt)
  5. MatchingPair (mp)
  6. MAST (mt)
  7. CopheneticL2Metric (co)
Input file: /home/chun/projects/clineage-simulation/analysis/tmc/tmc-005/case-19/reconstructed.newick
Output file: /home/chun/projects/clineage-simulation/analysis/tmc/tmc-005/case-19/scores.raw.out
Additional options:
N - Report normalized distances.
P - Prune compared trees if needed (trees can have different leaf sets).
I - Include summary section in the output file.
-----
2018-06-18 18:39:32: Start of reading random statistics.
2018-06-18 18:39:33: End of reading random statistics.
2018-06-18 18:39:33: Start of scanning input file: /home/chun/projects/clineage-simulation/analysis/tmc/tmc-005/case-19/reconstructed.newick
2018-06-18 18:39:33: End of scanning input file: /home/chun/projects/clineage-simulation/analysis/tmc/tmc-005/case-19/reconstructed.newick
2018-06-18 18:39:33: 1 valid trees found in file: /home/chun/projects/clineage-simulation/analysis/tmc/tmc-005/case-19/reconstructed.newick
2018-06-18 18:39:33: Start of calculation...please wait...
2018-06-18 18:39:33: 0.00% completed...
2018-06-18 18:39:33: 100.00% completed.
2018-06-18 18:39:33: End of calculation.
2018-06-18 18:39:33: Total calculation time: 297 ms.
                               metrics
No                              1.0000
RefTree                         1.0000
Tree                            1.0000
RefTree_taxa                   22.0000
Tree_taxa                      22.0000
Common_taxa                    22.0000
MatchingCluster                44.0000
MatchingCluster_toYuleAvg       0.4452
MatchingCluster_toUnifAvg       0.3799
R-F_Cluster                    12.5000
R-F_Cluster_toYuleAvg           0.6322
R-F_Cluster_toUnifAvg           0.6295
NodalSplitted                  40.7185
NodalSplitted_toYuleAvg         0.6113
NodalSplitted_toUnifAvg         0.4786
Triples                       330.0000
Triples_toYuleAvg               0.3216
Triples_toUnifAvg               0.3206
MatchingPair                   96.0000
MatchingPair_toYuleAvg          0.5827
MatchingPair_toUnifAvg          0.5929
MAST                           11.0000
MAST_toYuleAvg                  0.7334
MAST_toUnifAvg                  0.7281
CopheneticL2Metric             23.3238
CopheneticL2Metric_toYuleAvg    0.4589
CopheneticL2Metric_toUnifAvg    0.3717

                 Name         Avg  Std         Min         Max  Count
0     MatchingCluster   44.000000  0.0   44.000000   44.000000      1
1         R-F_Cluster   12.500000  0.0   12.500000   12.500000      1
2       NodalSplitted   40.718546  0.0   40.718546   40.718546      1
3             Triples  330.000000  0.0  330.000000  330.000000      1
4        MatchingPair   96.000000  0.0   96.000000   96.000000      1
5                MAST   11.000000  0.0   11.000000   11.000000      1
6  CopheneticL2Metric   23.323808  0.0   23.323808   23.323808      1
