
                            < M A T L A B (R) >
                  Copyright 1984-2017 The MathWorks, Inc.
                   R2017a (9.2.0.538062) 64-bit (glnxa64)
                             February 23, 2017

 
To get started, type one of these: helpwin, helpdesk, or demo.
For product information, visit www.mathworks.com.
 
Running "Run1", Seed: 136069
 *** Finished Simulation Run ***

config-18.json #############################################

[#.........] | Progress: 1 | Time: 0.0s | ETA: --[.#........] | Progress: 105 | Time: 0.1s | ETA: --[..#.......] | Progress: 210 | Time: 0.1s | ETA: --[...#......] | Progress: 315 | Time: 0.2s | ETA: --[....#.....] | Progress: 420 | Time: 0.2s | ETA: --[.....#....] | Progress: 525 | Time: 0.3s | ETA: --[......#...] | Progress: 629 | Time: 0.3s | ETA: --[.......#..] | Progress: 732 | Time: 0.4s | ETA: --[........#.] | Progress: 835 | Time: 0.4s | ETA: --[##########] | Progress: 895 | Time: 0.4s | ETA: --fit<>, fid</home/chun/projects/clineage-simulation/analysis/tmc-136069/tmc-006/case-18/triplets-list.raw.txt>, flg<treeReconstruction.log>, frt<resTree.tree>, frtN</home/chun/projects/clineage-simulation/analysis/tmc-136069/tmc-006/case-18/reconstructed.tmp.newick>, fsd<qqq.dat>, fst<simul.tree>, -->index=2
Read triplets from file...
Read triplets from file...Finished
N_triplets = 892, idMaxFound = 21
treeBuildBasedOnTriplets_run...
make_isTogetherInTripletAndDeleteExtraTriplets: Finished
maxCut with 21 nodes: Finished
maxCut with 15 nodes: Finished
maxCut with 10 nodes: Finished
treeBuildBasedOnTriplets_run...Finished
Saving tree to file...
Saving tree to file...Finished

                            < M A T L A B (R) >
                  Copyright 1984-2017 The MathWorks, Inc.
                   R2017a (9.2.0.538062) 64-bit (glnxa64)
                             February 23, 2017

 
To get started, type one of these: helpwin, helpdesk, or demo.
For product information, visit www.mathworks.com.
 
TreeCmp version build2

Active options:
Type of the analysis:  ref-to-all comparison mode (-r)
Metrics:
  1. MatchingCluster (mc)
  2. R-F_Cluster (rc)
  3. NodalSplitted (ns)
  4. Triples (tt)
  5. MatchingPair (mp)
  6. MAST (mt)
  7. CopheneticL2Metric (co)
Input file: /home/chun/projects/clineage-simulation/analysis/tmc-136069/tmc-006/case-18/reconstructed.newick
Output file: /home/chun/projects/clineage-simulation/analysis/tmc-136069/tmc-006/case-18/scores.raw.out
Additional options:
N - Report normalized distances.
P - Prune compared trees if needed (trees can have different leaf sets).
I - Include summary section in the output file.
-----
2018-06-19 06:54:12: Start of reading random statistics.
2018-06-19 06:54:12: End of reading random statistics.
2018-06-19 06:54:12: Start of scanning input file: /home/chun/projects/clineage-simulation/analysis/tmc-136069/tmc-006/case-18/reconstructed.newick
2018-06-19 06:54:12: End of scanning input file: /home/chun/projects/clineage-simulation/analysis/tmc-136069/tmc-006/case-18/reconstructed.newick
2018-06-19 06:54:12: 1 valid trees found in file: /home/chun/projects/clineage-simulation/analysis/tmc-136069/tmc-006/case-18/reconstructed.newick
2018-06-19 06:54:12: Start of calculation...please wait...
2018-06-19 06:54:12: 0.00% completed...
2018-06-19 06:54:12: 100.00% completed.
2018-06-19 06:54:12: End of calculation.
2018-06-19 06:54:12: Total calculation time: 27 ms.
                              metrics
No                             1.0000
RefTree                        1.0000
Tree                           1.0000
RefTree_taxa                  21.0000
Tree_taxa                     21.0000
Common_taxa                   21.0000
MatchingCluster               25.0000
MatchingCluster_toYuleAvg      0.2729
MatchingCluster_toUnifAvg      0.2364
R-F_Cluster                    4.5000
R-F_Cluster_toYuleAvg          0.2397
R-F_Cluster_toUnifAvg          0.2387
NodalSplitted                 21.8174
NodalSplitted_toYuleAvg        0.3543
NodalSplitted_toUnifAvg        0.2803
Triples                       71.0000
Triples_toYuleAvg              0.0800
Triples_toUnifAvg              0.0801
MatchingPair                  26.0000
MatchingPair_toYuleAvg         0.1741
MatchingPair_toUnifAvg         0.1776
MAST                           6.0000
MAST_toYuleAvg                 0.4233
MAST_toUnifAvg                 0.4203
CopheneticL2Metric            12.6886
CopheneticL2Metric_toYuleAvg   0.2667
CopheneticL2Metric_toUnifAvg   0.2196

                 Name        Avg  Std        Min        Max  Count
0     MatchingCluster  25.000000  0.0  25.000000  25.000000      1
1         R-F_Cluster   4.500000  0.0   4.500000   4.500000      1
2       NodalSplitted  21.817424  0.0  21.817424  21.817424      1
3             Triples  71.000000  0.0  71.000000  71.000000      1
4        MatchingPair  26.000000  0.0  26.000000  26.000000      1
5                MAST   6.000000  0.0   6.000000   6.000000      1
6  CopheneticL2Metric  12.688578  0.0  12.688578  12.688578      1
