
                            < M A T L A B (R) >
                  Copyright 1984-2017 The MathWorks, Inc.
                   R2017a (9.2.0.538062) 64-bit (glnxa64)
                             February 23, 2017

 
To get started, type one of these: helpwin, helpdesk, or demo.
For product information, visit www.mathworks.com.
 
Running "Run1", Seed: 875887
 *** Finished Simulation Run ***

config-13.json #############################################

[#.........] | Progress: 1 | Time: 0.0s | ETA: --[.#........] | Progress: 394 | Time: 0.1s | ETA: --[##########] | Progress: 400 | Time: 0.1s | ETA: --fit<>, fid</home/chun/projects/clineage-simulation/analysis/tmc/tmc-002/case-13/triplets-list.raw.txt>, flg<treeReconstruction.log>, frt<resTree.tree>, frtN</home/chun/projects/clineage-simulation/analysis/tmc/tmc-002/case-13/reconstructed.tmp.newick>, fsd<qqq.dat>, fst<simul.tree>, -->index=2
Read triplets from file...
Read triplets from file...Finished
N_triplets = 354, idMaxFound = 16
treeBuildBasedOnTriplets_run...
make_isTogetherInTripletAndDeleteExtraTriplets: Finished
maxCut with 16 nodes: Finished
maxCut with 9 nodes: Finished
treeBuildBasedOnTriplets_run...Finished
Saving tree to file...
Saving tree to file...Finished

                            < M A T L A B (R) >
                  Copyright 1984-2017 The MathWorks, Inc.
                   R2017a (9.2.0.538062) 64-bit (glnxa64)
                             February 23, 2017

 
To get started, type one of these: helpwin, helpdesk, or demo.
For product information, visit www.mathworks.com.
 
TreeCmp version build2

Active options:
Type of the analysis:  ref-to-all comparison mode (-r)
Metrics:
  1. MatchingCluster (mc)
  2. R-F_Cluster (rc)
  3. NodalSplitted (ns)
  4. Triples (tt)
  5. MatchingPair (mp)
  6. MAST (mt)
  7. CopheneticL2Metric (co)
Input file: /home/chun/projects/clineage-simulation/analysis/tmc/tmc-002/case-13/reconstructed.newick
Output file: /home/chun/projects/clineage-simulation/analysis/tmc/tmc-002/case-13/scores.raw.out
Additional options:
N - Report normalized distances.
P - Prune compared trees if needed (trees can have different leaf sets).
I - Include summary section in the output file.
-----
2018-06-18 18:38:26: Start of reading random statistics.
2018-06-18 18:38:26: End of reading random statistics.
2018-06-18 18:38:26: Start of scanning input file: /home/chun/projects/clineage-simulation/analysis/tmc/tmc-002/case-13/reconstructed.newick
2018-06-18 18:38:26: End of scanning input file: /home/chun/projects/clineage-simulation/analysis/tmc/tmc-002/case-13/reconstructed.newick
2018-06-18 18:38:26: 1 valid trees found in file: /home/chun/projects/clineage-simulation/analysis/tmc/tmc-002/case-13/reconstructed.newick
2018-06-18 18:38:26: Start of calculation...please wait...
2018-06-18 18:38:26: 0.00% completed...
2018-06-18 18:38:26: 100.00% completed.
2018-06-18 18:38:26: End of calculation.
2018-06-18 18:38:26: Total calculation time: 24 ms.
                               metrics
No                              1.0000
RefTree                         1.0000
Tree                            1.0000
RefTree_taxa                   16.0000
Tree_taxa                      16.0000
Common_taxa                    16.0000
MatchingCluster                41.0000
MatchingCluster_toYuleAvg       0.7016
MatchingCluster_toUnifAvg       0.6350
R-F_Cluster                    10.5000
R-F_Cluster_toYuleAvg           0.7624
R-F_Cluster_toUnifAvg           0.7595
NodalSplitted                  27.2580
NodalSplitted_toYuleAvg         0.6476
NodalSplitted_toUnifAvg         0.5538
Triples                       254.0000
Triples_toYuleAvg               0.6808
Triples_toUnifAvg               0.6825
MatchingPair                   70.0000
MatchingPair_toYuleAvg          0.8572
MatchingPair_toUnifAvg          0.8746
MAST                           10.0000
MAST_toYuleAvg                  0.9935
MAST_toUnifAvg                  0.9876
CopheneticL2Metric             17.1464
CopheneticL2Metric_toYuleAvg    0.5217
CopheneticL2Metric_toUnifAvg    0.4610

                 Name         Avg  Std         Min         Max  Count
0     MatchingCluster   41.000000  0.0   41.000000   41.000000      1
1         R-F_Cluster   10.500000  0.0   10.500000   10.500000      1
2       NodalSplitted   27.258026  0.0   27.258026   27.258026      1
3             Triples  254.000000  0.0  254.000000  254.000000      1
4        MatchingPair   70.000000  0.0   70.000000   70.000000      1
5                MAST   10.000000  0.0   10.000000   10.000000      1
6  CopheneticL2Metric   17.146428  0.0   17.146428   17.146428      1
