
                            < M A T L A B (R) >
                  Copyright 1984-2017 The MathWorks, Inc.
                   R2017a (9.2.0.538062) 64-bit (glnxa64)
                             February 23, 2017

 
To get started, type one of these: helpwin, helpdesk, or demo.
For product information, visit www.mathworks.com.
 
Running "Run1", Seed: 875887
 *** Finished Simulation Run ***

config-19.json #############################################

[#.........] | Progress: 1 | Time: 0.0s | ETA: --[.#........] | Progress: 400 | Time: 0.1s | ETA: --[..#.......] | Progress: 777 | Time: 0.1s | ETA: --[##########] | Progress: 1042 | Time: 0.1s | ETA: --fit<>, fid</home/chun/projects/clineage-simulation/analysis/tmc/tmc-002/case-19/triplets-list.raw.txt>, flg<treeReconstruction.log>, frt<resTree.tree>, frtN</home/chun/projects/clineage-simulation/analysis/tmc/tmc-002/case-19/reconstructed.tmp.newick>, fsd<qqq.dat>, fst<simul.tree>, -->index=2
Read triplets from file...
Read triplets from file...Finished
N_triplets = 916, idMaxFound = 22
treeBuildBasedOnTriplets_run...
make_isTogetherInTripletAndDeleteExtraTriplets: Finished
maxCut with 22 nodes: Finished
maxCut with 10 nodes: Finished
maxCut with 12 nodes: Finished
maxCut with 11 nodes: Finished
treeBuildBasedOnTriplets_run...Finished
Saving tree to file...
Saving tree to file...Finished

                            < M A T L A B (R) >
                  Copyright 1984-2017 The MathWorks, Inc.
                   R2017a (9.2.0.538062) 64-bit (glnxa64)
                             February 23, 2017

 
To get started, type one of these: helpwin, helpdesk, or demo.
For product information, visit www.mathworks.com.
 
TreeCmp version build2

Active options:
Type of the analysis:  ref-to-all comparison mode (-r)
Metrics:
  1. MatchingCluster (mc)
  2. R-F_Cluster (rc)
  3. NodalSplitted (ns)
  4. Triples (tt)
  5. MatchingPair (mp)
  6. MAST (mt)
  7. CopheneticL2Metric (co)
Input file: /home/chun/projects/clineage-simulation/analysis/tmc/tmc-002/case-19/reconstructed.newick
Output file: /home/chun/projects/clineage-simulation/analysis/tmc/tmc-002/case-19/scores.raw.out
Additional options:
N - Report normalized distances.
P - Prune compared trees if needed (trees can have different leaf sets).
I - Include summary section in the output file.
-----
2018-06-18 18:38:26: Start of reading random statistics.
2018-06-18 18:38:27: End of reading random statistics.
2018-06-18 18:38:27: Start of scanning input file: /home/chun/projects/clineage-simulation/analysis/tmc/tmc-002/case-19/reconstructed.newick
2018-06-18 18:38:27: End of scanning input file: /home/chun/projects/clineage-simulation/analysis/tmc/tmc-002/case-19/reconstructed.newick
2018-06-18 18:38:27: 1 valid trees found in file: /home/chun/projects/clineage-simulation/analysis/tmc/tmc-002/case-19/reconstructed.newick
2018-06-18 18:38:27: Start of calculation...please wait...
2018-06-18 18:38:27: 0.00% completed...
2018-06-18 18:38:27: 100.00% completed.
2018-06-18 18:38:27: End of calculation.
2018-06-18 18:38:27: Total calculation time: 28 ms.
                               metrics
No                              1.0000
RefTree                         1.0000
Tree                            1.0000
RefTree_taxa                   22.0000
Tree_taxa                      22.0000
Common_taxa                    22.0000
MatchingCluster                60.0000
MatchingCluster_toYuleAvg       0.6071
MatchingCluster_toUnifAvg       0.5181
R-F_Cluster                    14.5000
R-F_Cluster_toYuleAvg           0.7334
R-F_Cluster_toUnifAvg           0.7302
NodalSplitted                  37.0135
NodalSplitted_toYuleAvg         0.5556
NodalSplitted_toUnifAvg         0.4351
Triples                       626.0000
Triples_toYuleAvg               0.6101
Triples_toUnifAvg               0.6082
MatchingPair                  123.0000
MatchingPair_toYuleAvg          0.7466
MatchingPair_toUnifAvg          0.7596
MAST                           15.0000
MAST_toYuleAvg                  1.0001
MAST_toUnifAvg                  0.9929
CopheneticL2Metric             23.3880
CopheneticL2Metric_toYuleAvg    0.4601
CopheneticL2Metric_toUnifAvg    0.3727

                 Name         Avg  Std         Min         Max  Count
0     MatchingCluster   60.000000  0.0   60.000000   60.000000      1
1         R-F_Cluster   14.500000  0.0   14.500000   14.500000      1
2       NodalSplitted   37.013511  0.0   37.013511   37.013511      1
3             Triples  626.000000  0.0  626.000000  626.000000      1
4        MatchingPair  123.000000  0.0  123.000000  123.000000      1
5                MAST   15.000000  0.0   15.000000   15.000000      1
6  CopheneticL2Metric   23.388031  0.0   23.388031   23.388031      1
