
                            < M A T L A B (R) >
                  Copyright 1984-2017 The MathWorks, Inc.
                   R2017a (9.2.0.538062) 64-bit (glnxa64)
                             February 23, 2017

 
To get started, type one of these: helpwin, helpdesk, or demo.
For product information, visit www.mathworks.com.
 
Running "Run1", Seed: 875887
 *** Finished Simulation Run ***

config-12.json #############################################

[#.........] | Progress: 1 | Time: 0.0s | ETA: --[##########] | Progress: 324 | Time: 0.0s | ETA: --fit<>, fid</home/chun/projects/clineage-simulation/analysis/tmc/tmc-002/case-12/triplets-list.raw.txt>, flg<treeReconstruction.log>, frt<resTree.tree>, frtN</home/chun/projects/clineage-simulation/analysis/tmc/tmc-002/case-12/reconstructed.tmp.newick>, fsd<qqq.dat>, fst<simul.tree>, -->index=2
Read triplets from file...
Read triplets from file...Finished
N_triplets = 285, idMaxFound = 15
treeBuildBasedOnTriplets_run...
make_isTogetherInTripletAndDeleteExtraTriplets: Finished
maxCut with 15 nodes: Finished
maxCut with 8 nodes: Finished
treeBuildBasedOnTriplets_run...Finished
Saving tree to file...
Saving tree to file...Finished

                            < M A T L A B (R) >
                  Copyright 1984-2017 The MathWorks, Inc.
                   R2017a (9.2.0.538062) 64-bit (glnxa64)
                             February 23, 2017

 
To get started, type one of these: helpwin, helpdesk, or demo.
For product information, visit www.mathworks.com.
 
TreeCmp version build2

Active options:
Type of the analysis:  ref-to-all comparison mode (-r)
Metrics:
  1. MatchingCluster (mc)
  2. R-F_Cluster (rc)
  3. NodalSplitted (ns)
  4. Triples (tt)
  5. MatchingPair (mp)
  6. MAST (mt)
  7. CopheneticL2Metric (co)
Input file: /home/chun/projects/clineage-simulation/analysis/tmc/tmc-002/case-12/reconstructed.newick
Output file: /home/chun/projects/clineage-simulation/analysis/tmc/tmc-002/case-12/scores.raw.out
Additional options:
N - Report normalized distances.
P - Prune compared trees if needed (trees can have different leaf sets).
I - Include summary section in the output file.
-----
2018-06-18 18:38:23: Start of reading random statistics.
2018-06-18 18:38:23: End of reading random statistics.
2018-06-18 18:38:23: Start of scanning input file: /home/chun/projects/clineage-simulation/analysis/tmc/tmc-002/case-12/reconstructed.newick
2018-06-18 18:38:23: End of scanning input file: /home/chun/projects/clineage-simulation/analysis/tmc/tmc-002/case-12/reconstructed.newick
2018-06-18 18:38:23: 1 valid trees found in file: /home/chun/projects/clineage-simulation/analysis/tmc/tmc-002/case-12/reconstructed.newick
2018-06-18 18:38:23: Start of calculation...please wait...
2018-06-18 18:38:23: 0.00% completed...
2018-06-18 18:38:23: 100.00% completed.
2018-06-18 18:38:23: End of calculation.
2018-06-18 18:38:23: Total calculation time: 23 ms.
                               metrics
No                              1.0000
RefTree                         1.0000
Tree                            1.0000
RefTree_taxa                   15.0000
Tree_taxa                      15.0000
Common_taxa                    15.0000
MatchingCluster                39.0000
MatchingCluster_toYuleAvg       0.7535
MatchingCluster_toUnifAvg       0.6787
R-F_Cluster                    10.5000
R-F_Cluster_toYuleAvg           0.8238
R-F_Cluster_toUnifAvg           0.8192
NodalSplitted                  25.9230
NodalSplitted_toYuleAvg         0.6847
NodalSplitted_toUnifAvg         0.5895
Triples                       207.0000
Triples_toYuleAvg               0.6859
Triples_toUnifAvg               0.6838
MatchingPair                   63.0000
MatchingPair_toYuleAvg          0.8956
MatchingPair_toUnifAvg          0.9082
MAST                            9.0000
MAST_toYuleAvg                  0.9749
MAST_toUnifAvg                  0.9600
CopheneticL2Metric             16.1555
CopheneticL2Metric_toYuleAvg    0.5391
CopheneticL2Metric_toUnifAvg    0.4770

                 Name         Avg  Std         Min         Max  Count
0     MatchingCluster   39.000000  0.0   39.000000   39.000000      1
1         R-F_Cluster   10.500000  0.0   10.500000   10.500000      1
2       NodalSplitted   25.922963  0.0   25.922963   25.922963      1
3             Triples  207.000000  0.0  207.000000  207.000000      1
4        MatchingPair   63.000000  0.0   63.000000   63.000000      1
5                MAST    9.000000  0.0    9.000000    9.000000      1
6  CopheneticL2Metric   16.155494  0.0   16.155494   16.155494      1
