
                            < M A T L A B (R) >
                  Copyright 1984-2017 The MathWorks, Inc.
                   R2017a (9.2.0.538062) 64-bit (glnxa64)
                             February 23, 2017

 
To get started, type one of these: helpwin, helpdesk, or demo.
For product information, visit www.mathworks.com.
 
Running "Run1", Seed: 875887
 *** Finished Simulation Run ***

config-15.json #############################################

[#.........] | Progress: 1 | Time: 0.0s | ETA: --[.#........] | Progress: 68 | Time: 0.1s | ETA: --[..#.......] | Progress: 135 | Time: 0.1s | ETA: --[...#......] | Progress: 203 | Time: 0.2s | ETA: --[....#.....] | Progress: 270 | Time: 0.2s | ETA: --[.....#....] | Progress: 338 | Time: 0.3s | ETA: --[......#...] | Progress: 405 | Time: 0.3s | ETA: --[.......#..] | Progress: 472 | Time: 0.4s | ETA: --[........#.] | Progress: 539 | Time: 0.4s | ETA: --[##########] | Progress: 563 | Time: 0.4s | ETA: --fit<>, fid</home/chun/projects/clineage-simulation/analysis/tmc-002/case-15/triplets-list.raw.txt>, flg<treeReconstruction.log>, frt<resTree.tree>, frtN</home/chun/projects/clineage-simulation/analysis/tmc-002/case-15/reconstructed.tmp.newick>, fsd<qqq.dat>, fst<simul.tree>, -->index=2
Read triplets from file...
Read triplets from file...Finished
N_triplets = 563, idMaxFound = 18
treeBuildBasedOnTriplets_run...
make_isTogetherInTripletAndDeleteExtraTriplets: Finished
maxCut with 18 nodes: Finished
maxCut with 9 nodes: Finished
maxCut with 9 nodes: Finished
treeBuildBasedOnTriplets_run...Finished
Saving tree to file...
Saving tree to file...Finished

                            < M A T L A B (R) >
                  Copyright 1984-2017 The MathWorks, Inc.
                   R2017a (9.2.0.538062) 64-bit (glnxa64)
                             February 23, 2017

 
To get started, type one of these: helpwin, helpdesk, or demo.
For product information, visit www.mathworks.com.
 
TreeCmp version build2

Active options:
Type of the analysis:  ref-to-all comparison mode (-r)
Metrics:
  1. MatchingCluster (mc)
  2. R-F_Cluster (rc)
  3. NodalSplitted (ns)
  4. Triples (tt)
  5. MatchingPair (mp)
  6. MAST (mt)
  7. CopheneticL2Metric (co)
Input file: /home/chun/projects/clineage-simulation/analysis/tmc-002/case-15/reconstructed.newick
Output file: /home/chun/projects/clineage-simulation/analysis/tmc-002/case-15/scores.raw.out
Additional options:
N - Report normalized distances.
P - Prune compared trees if needed (trees can have different leaf sets).
I - Include summary section in the output file.
-----
2018-06-18 16:36:07: Start of reading random statistics.
2018-06-18 16:36:07: End of reading random statistics.
2018-06-18 16:36:07: Start of scanning input file: /home/chun/projects/clineage-simulation/analysis/tmc-002/case-15/reconstructed.newick
2018-06-18 16:36:07: End of scanning input file: /home/chun/projects/clineage-simulation/analysis/tmc-002/case-15/reconstructed.newick
2018-06-18 16:36:07: 1 valid trees found in file: /home/chun/projects/clineage-simulation/analysis/tmc-002/case-15/reconstructed.newick
2018-06-18 16:36:07: Start of calculation...please wait...
2018-06-18 16:36:07: 0.00% completed...
2018-06-18 16:36:07: 100.00% completed.
2018-06-18 16:36:07: End of calculation.
2018-06-18 16:36:07: Total calculation time: 24 ms.
                              metrics
No                             1.0000
RefTree                        1.0000
Tree                           1.0000
RefTree_taxa                  18.0000
Tree_taxa                     18.0000
Common_taxa                   18.0000
MatchingCluster               11.0000
MatchingCluster_toYuleAvg      0.1548
MatchingCluster_toUnifAvg      0.1368
R-F_Cluster                    2.0000
R-F_Cluster_toYuleAvg          0.1267
R-F_Cluster_toUnifAvg          0.1264
NodalSplitted                 14.9332
NodalSplitted_toYuleAvg        0.3004
NodalSplitted_toUnifAvg        0.2464
Triples                       27.0000
Triples_toYuleAvg              0.0494
Triples_toUnifAvg              0.0497
MatchingPair                  11.0000
MatchingPair_toYuleAvg         0.1034
MatchingPair_toUnifAvg         0.1058
MAST                           4.0000
MAST_toYuleAvg                 0.3408
MAST_toUnifAvg                 0.3399
CopheneticL2Metric             7.2111
CopheneticL2Metric_toYuleAvg   0.1838
CopheneticL2Metric_toUnifAvg   0.1595

                 Name        Avg  Std        Min        Max  Count
0     MatchingCluster  11.000000  0.0  11.000000  11.000000      1
1         R-F_Cluster   2.000000  0.0   2.000000   2.000000      1
2       NodalSplitted  14.933185  0.0  14.933185  14.933185      1
3             Triples  27.000000  0.0  27.000000  27.000000      1
4        MatchingPair  11.000000  0.0  11.000000  11.000000      1
5                MAST   4.000000  0.0   4.000000   4.000000      1
6  CopheneticL2Metric   7.211103  0.0   7.211103   7.211103      1
