
                            < M A T L A B (R) >
                  Copyright 1984-2017 The MathWorks, Inc.
                   R2017a (9.2.0.538062) 64-bit (glnxa64)
                             February 23, 2017

 
To get started, type one of these: helpwin, helpdesk, or demo.
For product information, visit www.mathworks.com.
 
Running "Run1", Seed: 875887
 *** Finished Simulation Run ***

config-12.json #############################################

[#.........] | Progress: 1 | Time: 0.0s | ETA: --[.#........] | Progress: 65 | Time: 0.1s | ETA: --[..#.......] | Progress: 130 | Time: 0.1s | ETA: --[...#......] | Progress: 194 | Time: 0.2s | ETA: --[....#.....] | Progress: 257 | Time: 0.2s | ETA: --[##########] | Progress: 305 | Time: 0.2s | ETA: --fit<>, fid</home/chun/projects/clineage-simulation/analysis/tmc-002/case-12/triplets-list.raw.txt>, flg<treeReconstruction.log>, frt<resTree.tree>, frtN</home/chun/projects/clineage-simulation/analysis/tmc-002/case-12/reconstructed.tmp.newick>, fsd<qqq.dat>, fst<simul.tree>, -->index=2
Read triplets from file...
Read triplets from file...Finished
N_triplets = 305, idMaxFound = 15
treeBuildBasedOnTriplets_run...
make_isTogetherInTripletAndDeleteExtraTriplets: Finished
maxCut with 15 nodes: Finished
maxCut with 8 nodes: Finished
maxCut with 7 nodes: Finished
treeBuildBasedOnTriplets_run...Finished
Saving tree to file...
Saving tree to file...Finished

                            < M A T L A B (R) >
                  Copyright 1984-2017 The MathWorks, Inc.
                   R2017a (9.2.0.538062) 64-bit (glnxa64)
                             February 23, 2017

 
To get started, type one of these: helpwin, helpdesk, or demo.
For product information, visit www.mathworks.com.
 
TreeCmp version build2

Active options:
Type of the analysis:  ref-to-all comparison mode (-r)
Metrics:
  1. MatchingCluster (mc)
  2. R-F_Cluster (rc)
  3. NodalSplitted (ns)
  4. Triples (tt)
  5. MatchingPair (mp)
  6. MAST (mt)
  7. CopheneticL2Metric (co)
Input file: /home/chun/projects/clineage-simulation/analysis/tmc-002/case-12/reconstructed.newick
Output file: /home/chun/projects/clineage-simulation/analysis/tmc-002/case-12/scores.raw.out
Additional options:
N - Report normalized distances.
P - Prune compared trees if needed (trees can have different leaf sets).
I - Include summary section in the output file.
-----
2018-06-18 16:36:06: Start of reading random statistics.
2018-06-18 16:36:06: End of reading random statistics.
2018-06-18 16:36:06: Start of scanning input file: /home/chun/projects/clineage-simulation/analysis/tmc-002/case-12/reconstructed.newick
2018-06-18 16:36:06: End of scanning input file: /home/chun/projects/clineage-simulation/analysis/tmc-002/case-12/reconstructed.newick
2018-06-18 16:36:06: 1 valid trees found in file: /home/chun/projects/clineage-simulation/analysis/tmc-002/case-12/reconstructed.newick
2018-06-18 16:36:06: Start of calculation...please wait...
2018-06-18 16:36:06: 0.00% completed...
2018-06-18 16:36:06: 100.00% completed.
2018-06-18 16:36:06: End of calculation.
2018-06-18 16:36:06: Total calculation time: 20 ms.
                              metrics
No                             1.0000
RefTree                        1.0000
Tree                           1.0000
RefTree_taxa                  15.0000
Tree_taxa                     15.0000
Common_taxa                   15.0000
MatchingCluster                4.0000
MatchingCluster_toYuleAvg      0.0773
MatchingCluster_toUnifAvg      0.0696
R-F_Cluster                    1.0000
R-F_Cluster_toYuleAvg          0.0785
R-F_Cluster_toUnifAvg          0.0780
NodalSplitted                  7.0711
NodalSplitted_toYuleAvg        0.1868
NodalSplitted_toUnifAvg        0.1608
Triples                        9.0000
Triples_toYuleAvg              0.0298
Triples_toUnifAvg              0.0297
MatchingPair                   3.0000
MatchingPair_toYuleAvg         0.0426
MatchingPair_toUnifAvg         0.0432
MAST                           1.0000
MAST_toYuleAvg                 0.1083
MAST_toUnifAvg                 0.1067
CopheneticL2Metric             4.3589
CopheneticL2Metric_toYuleAvg   0.1455
CopheneticL2Metric_toUnifAvg   0.1287

                 Name       Avg  Std       Min       Max  Count
0     MatchingCluster  4.000000  0.0  4.000000  4.000000      1
1         R-F_Cluster  1.000000  0.0  1.000000  1.000000      1
2       NodalSplitted  7.071068  0.0  7.071068  7.071068      1
3             Triples  9.000000  0.0  9.000000  9.000000      1
4        MatchingPair  3.000000  0.0  3.000000  3.000000      1
5                MAST  1.000000  0.0  1.000000  1.000000      1
6  CopheneticL2Metric  4.358899  0.0  4.358899  4.358899      1
