
                            < M A T L A B (R) >
                  Copyright 1984-2017 The MathWorks, Inc.
                   R2017a (9.2.0.538062) 64-bit (glnxa64)
                             February 23, 2017

 
To get started, type one of these: helpwin, helpdesk, or demo.
For product information, visit www.mathworks.com.
 
Running "Run1", Seed: 875887
 *** Finished Simulation Run ***

config-08.json #############################################

[#.........] | Progress: 1 | Time: 0.0s | ETA: --[.#........] | Progress: 43 | Time: 0.1s | ETA: --[..#.......] | Progress: 93 | Time: 0.1s | ETA: --[##########] | Progress: 127 | Time: 0.1s | ETA: --fit<>, fid</home/chun/projects/clineage-simulation/analysis/tmc-002/case-08/triplets-list.raw.txt>, flg<treeReconstruction.log>, frt<resTree.tree>, frtN</home/chun/projects/clineage-simulation/analysis/tmc-002/case-08/reconstructed.tmp.newick>, fsd<qqq.dat>, fst<simul.tree>, -->index=2
Read triplets from file...
Read triplets from file...Finished
N_triplets = 127, idMaxFound = 11
treeBuildBasedOnTriplets_run...
make_isTogetherInTripletAndDeleteExtraTriplets: Finished
maxCut with 11 nodes: Finished
maxCut with 5 nodes: Finished
maxCut with 6 nodes: Finished
treeBuildBasedOnTriplets_run...Finished
Saving tree to file...
Saving tree to file...Finished

                            < M A T L A B (R) >
                  Copyright 1984-2017 The MathWorks, Inc.
                   R2017a (9.2.0.538062) 64-bit (glnxa64)
                             February 23, 2017

 
To get started, type one of these: helpwin, helpdesk, or demo.
For product information, visit www.mathworks.com.
 
TreeCmp version build2

Active options:
Type of the analysis:  ref-to-all comparison mode (-r)
Metrics:
  1. MatchingCluster (mc)
  2. R-F_Cluster (rc)
  3. NodalSplitted (ns)
  4. Triples (tt)
  5. MatchingPair (mp)
  6. MAST (mt)
  7. CopheneticL2Metric (co)
Input file: /home/chun/projects/clineage-simulation/analysis/tmc-002/case-08/reconstructed.newick
Output file: /home/chun/projects/clineage-simulation/analysis/tmc-002/case-08/scores.raw.out
Additional options:
N - Report normalized distances.
P - Prune compared trees if needed (trees can have different leaf sets).
I - Include summary section in the output file.
-----
2018-06-18 17:55:38: Start of reading random statistics.
2018-06-18 17:55:39: End of reading random statistics.
2018-06-18 17:55:39: Start of scanning input file: /home/chun/projects/clineage-simulation/analysis/tmc-002/case-08/reconstructed.newick
2018-06-18 17:55:39: End of scanning input file: /home/chun/projects/clineage-simulation/analysis/tmc-002/case-08/reconstructed.newick
2018-06-18 17:55:39: 1 valid trees found in file: /home/chun/projects/clineage-simulation/analysis/tmc-002/case-08/reconstructed.newick
2018-06-18 17:55:39: Start of calculation...please wait...
2018-06-18 17:55:39: 0.00% completed...
2018-06-18 17:55:39: 100.00% completed.
2018-06-18 17:55:39: End of calculation.
2018-06-18 17:55:39: Total calculation time: 27 ms.
                              metrics
No                             1.0000
RefTree                        1.0000
Tree                           1.0000
RefTree_taxa                  11.0000
Tree_taxa                     11.0000
Common_taxa                   11.0000
MatchingCluster                4.0000
MatchingCluster_toYuleAvg      0.1318
MatchingCluster_toUnifAvg      0.1252
R-F_Cluster                    1.0000
R-F_Cluster_toYuleAvg          0.1145
R-F_Cluster_toUnifAvg          0.1136
NodalSplitted                  5.8310
NodalSplitted_toYuleAvg        0.2457
NodalSplitted_toUnifAvg        0.2274
Triples                        6.0000
Triples_toYuleAvg              0.0546
Triples_toUnifAvg              0.0544
MatchingPair                   3.0000
MatchingPair_toYuleAvg         0.0873
MatchingPair_toUnifAvg         0.0881
MAST                           1.0000
MAST_toYuleAvg                 0.1618
MAST_toUnifAvg                 0.1616
CopheneticL2Metric             3.8730
CopheneticL2Metric_toYuleAvg   0.2032
CopheneticL2Metric_toUnifAvg   0.1883

                 Name       Avg  Std       Min       Max  Count
0     MatchingCluster  4.000000  0.0  4.000000  4.000000      1
1         R-F_Cluster  1.000000  0.0  1.000000  1.000000      1
2       NodalSplitted  5.830952  0.0  5.830952  5.830952      1
3             Triples  6.000000  0.0  6.000000  6.000000      1
4        MatchingPair  3.000000  0.0  3.000000  3.000000      1
5                MAST  1.000000  0.0  1.000000  1.000000      1
6  CopheneticL2Metric  3.872983  0.0  3.872983  3.872983      1
