
                            < M A T L A B (R) >
                  Copyright 1984-2017 The MathWorks, Inc.
                   R2017a (9.2.0.538062) 64-bit (glnxa64)
                             February 23, 2017

 
To get started, type one of these: helpwin, helpdesk, or demo.
For product information, visit www.mathworks.com.
 
Running "Run1", Seed: 875887
 *** Finished Simulation Run ***

config-09.json #############################################

[#.........] | Progress: 1 | Time: 0.0s | ETA: --[.#........] | Progress: 70 | Time: 0.1s | ETA: --[..#.......] | Progress: 139 | Time: 0.1s | ETA: --[##########] | Progress: 161 | Time: 0.1s | ETA: --fit<>, fid</home/chun/projects/clineage-simulation/analysis/tmc-002/case-09/triplets-list.raw.txt>, flg<treeReconstruction.log>, frt<resTree.tree>, frtN</home/chun/projects/clineage-simulation/analysis/tmc-002/case-09/reconstructed.tmp.newick>, fsd<qqq.dat>, fst<simul.tree>, -->index=2
Read triplets from file...
Read triplets from file...Finished
N_triplets = 161, idMaxFound = 11
treeBuildBasedOnTriplets_run...
make_isTogetherInTripletAndDeleteExtraTriplets: Finished
maxCut with 12 nodes: Finished
maxCut with 6 nodes: Finished
treeBuildBasedOnTriplets_run...Finished
Saving tree to file...
Saving tree to file...Finished

                            < M A T L A B (R) >
                  Copyright 1984-2017 The MathWorks, Inc.
                   R2017a (9.2.0.538062) 64-bit (glnxa64)
                             February 23, 2017

 
To get started, type one of these: helpwin, helpdesk, or demo.
For product information, visit www.mathworks.com.
 
TreeCmp version build2

Active options:
Type of the analysis:  ref-to-all comparison mode (-r)
Metrics:
  1. MatchingCluster (mc)
  2. R-F_Cluster (rc)
  3. NodalSplitted (ns)
  4. Triples (tt)
  5. MatchingPair (mp)
  6. MAST (mt)
  7. CopheneticL2Metric (co)
Input file: /home/chun/projects/clineage-simulation/analysis/tmc-002/case-09/reconstructed.newick
Output file: /home/chun/projects/clineage-simulation/analysis/tmc-002/case-09/scores.raw.out
Additional options:
N - Report normalized distances.
P - Prune compared trees if needed (trees can have different leaf sets).
I - Include summary section in the output file.
-----
2018-06-18 16:36:11: Start of reading random statistics.
2018-06-18 16:36:11: End of reading random statistics.
2018-06-18 16:36:11: Start of scanning input file: /home/chun/projects/clineage-simulation/analysis/tmc-002/case-09/reconstructed.newick
2018-06-18 16:36:11: End of scanning input file: /home/chun/projects/clineage-simulation/analysis/tmc-002/case-09/reconstructed.newick
2018-06-18 16:36:11: 1 valid trees found in file: /home/chun/projects/clineage-simulation/analysis/tmc-002/case-09/reconstructed.newick
2018-06-18 16:36:11: Start of calculation...please wait...
2018-06-18 16:36:11: 0.00% completed...
2018-06-18 16:36:11: 100.00% completed.
2018-06-18 16:36:11: End of calculation.
2018-06-18 16:36:11: Total calculation time: 36 ms.
                              metrics
No                             1.0000
RefTree                        1.0000
Tree                           1.0000
RefTree_taxa                  12.0000
Tree_taxa                     12.0000
Common_taxa                   12.0000
MatchingCluster                6.0000
MatchingCluster_toYuleAvg      0.1690
MatchingCluster_toUnifAvg      0.1587
R-F_Cluster                    1.5000
R-F_Cluster_toYuleAvg          0.1538
R-F_Cluster_toUnifAvg          0.1532
NodalSplitted                  7.6158
NodalSplitted_toYuleAvg        0.2796
NodalSplitted_toUnifAvg        0.2545
Triples                        8.0000
Triples_toYuleAvg              0.0543
Triples_toUnifAvg              0.0545
MatchingPair                   4.0000
MatchingPair_toYuleAvg         0.0946
MatchingPair_toUnifAvg         0.0958
MAST                           2.0000
MAST_toYuleAvg                 0.2902
MAST_toUnifAvg                 0.2874
CopheneticL2Metric             4.2426
CopheneticL2Metric_toYuleAvg   0.1957
CopheneticL2Metric_toUnifAvg   0.1801

                 Name       Avg  Std       Min       Max  Count
0     MatchingCluster  6.000000  0.0  6.000000  6.000000      1
1         R-F_Cluster  1.500000  0.0  1.500000  1.500000      1
2       NodalSplitted  7.615773  0.0  7.615773  7.615773      1
3             Triples  8.000000  0.0  8.000000  8.000000      1
4        MatchingPair  4.000000  0.0  4.000000  4.000000      1
5                MAST  2.000000  0.0  2.000000  2.000000      1
6  CopheneticL2Metric  4.242641  0.0  4.242641  4.242641      1
