
                            < M A T L A B (R) >
                  Copyright 1984-2017 The MathWorks, Inc.
                   R2017a (9.2.0.538062) 64-bit (glnxa64)
                             February 23, 2017

 
To get started, type one of these: helpwin, helpdesk, or demo.
For product information, visit www.mathworks.com.
 
Running "Run1", Seed: 875887
 *** Finished Simulation Run ***

config-15.json #############################################

[#.........] | Progress: 1 | Time: 0.0s | ETA: --[.#........] | Progress: 59 | Time: 0.1s | ETA: --[..#.......] | Progress: 118 | Time: 0.1s | ETA: --[...#......] | Progress: 177 | Time: 0.2s | ETA: --[....#.....] | Progress: 236 | Time: 0.2s | ETA: --[.....#....] | Progress: 294 | Time: 0.3s | ETA: --[......#...] | Progress: 351 | Time: 0.3s | ETA: --[.......#..] | Progress: 409 | Time: 0.4s | ETA: --[........#.] | Progress: 468 | Time: 0.4s | ETA: --[.........#] | Progress: 526 | Time: 0.5s | ETA: --[##########] | Progress: 549 | Time: 0.5s | ETA: --fit<>, fid</home/chun/projects/clineage-simulation/analysis/tmc-002/case-15/triplets-list.raw.txt>, flg<treeReconstruction.log>, frt<resTree.tree>, frtN</home/chun/projects/clineage-simulation/analysis/tmc-002/case-15/reconstructed.tmp.newick>, fsd<qqq.dat>, fst<simul.tree>, -->index=2
Read triplets from file...
Read triplets from file...Finished
N_triplets = 549, idMaxFound = 18
treeBuildBasedOnTriplets_run...
make_isTogetherInTripletAndDeleteExtraTriplets: Finished
maxCut with 18 nodes: Finished
maxCut with 9 nodes: Finished
maxCut with 9 nodes: Finished
treeBuildBasedOnTriplets_run...Finished
Saving tree to file...
Saving tree to file...Finished

                            < M A T L A B (R) >
                  Copyright 1984-2017 The MathWorks, Inc.
                   R2017a (9.2.0.538062) 64-bit (glnxa64)
                             February 23, 2017

 
To get started, type one of these: helpwin, helpdesk, or demo.
For product information, visit www.mathworks.com.
 
TreeCmp version build2

Active options:
Type of the analysis:  ref-to-all comparison mode (-r)
Metrics:
  1. MatchingCluster (mc)
  2. R-F_Cluster (rc)
  3. NodalSplitted (ns)
  4. Triples (tt)
  5. MatchingPair (mp)
  6. MAST (mt)
  7. CopheneticL2Metric (co)
Input file: /home/chun/projects/clineage-simulation/analysis/tmc-002/case-15/reconstructed.newick
Output file: /home/chun/projects/clineage-simulation/analysis/tmc-002/case-15/scores.raw.out
Additional options:
N - Report normalized distances.
P - Prune compared trees if needed (trees can have different leaf sets).
I - Include summary section in the output file.
-----
2018-06-18 17:55:23: Start of reading random statistics.
2018-06-18 17:55:24: End of reading random statistics.
2018-06-18 17:55:24: Start of scanning input file: /home/chun/projects/clineage-simulation/analysis/tmc-002/case-15/reconstructed.newick
2018-06-18 17:55:24: End of scanning input file: /home/chun/projects/clineage-simulation/analysis/tmc-002/case-15/reconstructed.newick
2018-06-18 17:55:24: 1 valid trees found in file: /home/chun/projects/clineage-simulation/analysis/tmc-002/case-15/reconstructed.newick
2018-06-18 17:55:24: Start of calculation...please wait...
2018-06-18 17:55:24: 0.00% completed...
2018-06-18 17:55:24: 100.00% completed.
2018-06-18 17:55:24: End of calculation.
2018-06-18 17:55:24: Total calculation time: 23 ms.
                              metrics
No                             1.0000
RefTree                        1.0000
Tree                           1.0000
RefTree_taxa                  18.0000
Tree_taxa                     18.0000
Common_taxa                   18.0000
MatchingCluster                3.0000
MatchingCluster_toYuleAvg      0.0422
MatchingCluster_toUnifAvg      0.0373
R-F_Cluster                    0.5000
R-F_Cluster_toYuleAvg          0.0317
R-F_Cluster_toUnifAvg          0.0316
NodalSplitted                  6.7082
NodalSplitted_toYuleAvg        0.1349
NodalSplitted_toUnifAvg        0.1107
Triples                        2.0000
Triples_toYuleAvg              0.0037
Triples_toUnifAvg              0.0037
MatchingPair                   2.0000
MatchingPair_toYuleAvg         0.0188
MatchingPair_toUnifAvg         0.0192
MAST                           1.0000
MAST_toYuleAvg                 0.0852
MAST_toUnifAvg                 0.0850
CopheneticL2Metric             2.4495
CopheneticL2Metric_toYuleAvg   0.0624
CopheneticL2Metric_toUnifAvg   0.0542

                 Name       Avg  Std       Min       Max  Count
0     MatchingCluster  3.000000  0.0  3.000000  3.000000      1
1         R-F_Cluster  0.500000  0.0  0.500000  0.500000      1
2       NodalSplitted  6.708204  0.0  6.708204  6.708204      1
3             Triples  2.000000  0.0  2.000000  2.000000      1
4        MatchingPair  2.000000  0.0  2.000000  2.000000      1
5                MAST  1.000000  0.0  1.000000  1.000000      1
6  CopheneticL2Metric  2.449490  0.0  2.449490  2.449490      1
