
                            < M A T L A B (R) >
                  Copyright 1984-2017 The MathWorks, Inc.
                   R2017a (9.2.0.538062) 64-bit (glnxa64)
                             February 23, 2017

 
To get started, type one of these: helpwin, helpdesk, or demo.
For product information, visit www.mathworks.com.
 
Running "Run1", Seed: 875887
 *** Finished Simulation Run ***

config-13.json #############################################

[#.........] | Progress: 1 | Time: 0.0s | ETA: --[.#........] | Progress: 93 | Time: 0.1s | ETA: --[..#.......] | Progress: 197 | Time: 0.1s | ETA: --[...#......] | Progress: 304 | Time: 0.2s | ETA: --[##########] | Progress: 393 | Time: 0.2s | ETA: --fit<>, fid</home/chun/projects/clineage-simulation/analysis/tmc/tmc-006/case-13/triplets-list.raw.txt>, flg<treeReconstruction.log>, frt<resTree.tree>, frtN</home/chun/projects/clineage-simulation/analysis/tmc/tmc-006/case-13/reconstructed.tmp.newick>, fsd<qqq.dat>, fst<simul.tree>, -->index=2
Read triplets from file...
Read triplets from file...Finished
N_triplets = 392, idMaxFound = 16
treeBuildBasedOnTriplets_run...
make_isTogetherInTripletAndDeleteExtraTriplets: Finished
maxCut with 16 nodes: Finished
maxCut with 9 nodes: Finished
maxCut with 7 nodes: Finished
maxCut with 4 nodes: Finished
treeBuildBasedOnTriplets_run...Finished
Saving tree to file...
Saving tree to file...Finished

                            < M A T L A B (R) >
                  Copyright 1984-2017 The MathWorks, Inc.
                   R2017a (9.2.0.538062) 64-bit (glnxa64)
                             February 23, 2017

 
To get started, type one of these: helpwin, helpdesk, or demo.
For product information, visit www.mathworks.com.
 
TreeCmp version build2

Active options:
Type of the analysis:  ref-to-all comparison mode (-r)
Metrics:
  1. MatchingCluster (mc)
  2. R-F_Cluster (rc)
  3. NodalSplitted (ns)
  4. Triples (tt)
  5. MatchingPair (mp)
  6. MAST (mt)
  7. CopheneticL2Metric (co)
Input file: /home/chun/projects/clineage-simulation/analysis/tmc/tmc-006/case-13/reconstructed.newick
Output file: /home/chun/projects/clineage-simulation/analysis/tmc/tmc-006/case-13/scores.raw.out
Additional options:
N - Report normalized distances.
P - Prune compared trees if needed (trees can have different leaf sets).
I - Include summary section in the output file.
-----
2018-06-18 18:39:09: Start of reading random statistics.
2018-06-18 18:39:09: End of reading random statistics.
2018-06-18 18:39:09: Start of scanning input file: /home/chun/projects/clineage-simulation/analysis/tmc/tmc-006/case-13/reconstructed.newick
2018-06-18 18:39:09: End of scanning input file: /home/chun/projects/clineage-simulation/analysis/tmc/tmc-006/case-13/reconstructed.newick
2018-06-18 18:39:09: 1 valid trees found in file: /home/chun/projects/clineage-simulation/analysis/tmc/tmc-006/case-13/reconstructed.newick
2018-06-18 18:39:09: Start of calculation...please wait...
2018-06-18 18:39:09: 0.00% completed...
2018-06-18 18:39:10: 100.00% completed.
2018-06-18 18:39:10: End of calculation.
2018-06-18 18:39:10: Total calculation time: 29 ms.
                               metrics
No                              1.0000
RefTree                         1.0000
Tree                            1.0000
RefTree_taxa                   16.0000
Tree_taxa                      16.0000
Common_taxa                    16.0000
MatchingCluster                22.0000
MatchingCluster_toYuleAvg       0.3765
MatchingCluster_toUnifAvg       0.3407
R-F_Cluster                     5.0000
R-F_Cluster_toYuleAvg           0.3631
R-F_Cluster_toUnifAvg           0.3617
NodalSplitted                  20.0000
NodalSplitted_toYuleAvg         0.4752
NodalSplitted_toUnifAvg         0.4064
Triples                       132.0000
Triples_toYuleAvg               0.3538
Triples_toUnifAvg               0.3547
MatchingPair                   36.0000
MatchingPair_toYuleAvg          0.4408
MatchingPair_toUnifAvg          0.4498
MAST                            5.0000
MAST_toYuleAvg                  0.4968
MAST_toUnifAvg                  0.4938
CopheneticL2Metric             12.3288
CopheneticL2Metric_toYuleAvg    0.3751
CopheneticL2Metric_toUnifAvg    0.3315

                 Name         Avg  Std         Min         Max  Count
0     MatchingCluster   22.000000  0.0   22.000000   22.000000      1
1         R-F_Cluster    5.000000  0.0    5.000000    5.000000      1
2       NodalSplitted   20.000000  0.0   20.000000   20.000000      1
3             Triples  132.000000  0.0  132.000000  132.000000      1
4        MatchingPair   36.000000  0.0   36.000000   36.000000      1
5                MAST    5.000000  0.0    5.000000    5.000000      1
6  CopheneticL2Metric   12.328828  0.0   12.328828   12.328828      1
