
                            < M A T L A B (R) >
                  Copyright 1984-2017 The MathWorks, Inc.
                   R2017a (9.2.0.538062) 64-bit (glnxa64)
                             February 23, 2017

 
To get started, type one of these: helpwin, helpdesk, or demo.
For product information, visit www.mathworks.com.
 
Running "Run1", Seed: 875887
 *** Finished Simulation Run ***

config-04.json #############################################

[#.........] | Progress: 1 | Time: 0.0s | ETA: --[##########] | Progress: 30 | Time: 0.0s | ETA: --fit<>, fid</home/chun/projects/clineage-simulation/analysis/tmc/tmc-006/case-04/triplets-list.raw.txt>, flg<treeReconstruction.log>, frt<resTree.tree>, frtN</home/chun/projects/clineage-simulation/analysis/tmc/tmc-006/case-04/reconstructed.tmp.newick>, fsd<qqq.dat>, fst<simul.tree>, -->index=2
Read triplets from file...
Read triplets from file...Finished
N_triplets = 30, idMaxFound = 7
treeBuildBasedOnTriplets_run...
make_isTogetherInTripletAndDeleteExtraTriplets: Finished
treeBuildBasedOnTriplets_run...Finished
Saving tree to file...
Saving tree to file...Finished

                            < M A T L A B (R) >
                  Copyright 1984-2017 The MathWorks, Inc.
                   R2017a (9.2.0.538062) 64-bit (glnxa64)
                             February 23, 2017

 
To get started, type one of these: helpwin, helpdesk, or demo.
For product information, visit www.mathworks.com.
 
TreeCmp version build2

Active options:
Type of the analysis:  ref-to-all comparison mode (-r)
Metrics:
  1. MatchingCluster (mc)
  2. R-F_Cluster (rc)
  3. NodalSplitted (ns)
  4. Triples (tt)
  5. MatchingPair (mp)
  6. MAST (mt)
  7. CopheneticL2Metric (co)
Input file: /home/chun/projects/clineage-simulation/analysis/tmc/tmc-006/case-04/reconstructed.newick
Output file: /home/chun/projects/clineage-simulation/analysis/tmc/tmc-006/case-04/scores.raw.out
Additional options:
N - Report normalized distances.
P - Prune compared trees if needed (trees can have different leaf sets).
I - Include summary section in the output file.
-----
2018-06-18 18:39:08: Start of reading random statistics.
2018-06-18 18:39:08: End of reading random statistics.
2018-06-18 18:39:08: Start of scanning input file: /home/chun/projects/clineage-simulation/analysis/tmc/tmc-006/case-04/reconstructed.newick
2018-06-18 18:39:08: End of scanning input file: /home/chun/projects/clineage-simulation/analysis/tmc/tmc-006/case-04/reconstructed.newick
2018-06-18 18:39:08: 1 valid trees found in file: /home/chun/projects/clineage-simulation/analysis/tmc/tmc-006/case-04/reconstructed.newick
2018-06-18 18:39:08: Start of calculation...please wait...
2018-06-18 18:39:08: 0.00% completed...
2018-06-18 18:39:08: 100.00% completed.
2018-06-18 18:39:08: End of calculation.
2018-06-18 18:39:08: Total calculation time: 19 ms.
                              metrics
No                             1.0000
RefTree                        1.0000
Tree                           1.0000
RefTree_taxa                   7.0000
Tree_taxa                      7.0000
Common_taxa                    7.0000
MatchingCluster                2.0000
MatchingCluster_toYuleAvg      0.1585
MatchingCluster_toUnifAvg      0.1579
R-F_Cluster                    1.0000
R-F_Cluster_toYuleAvg          0.2129
R-F_Cluster_toUnifAvg          0.2136
NodalSplitted                  3.4641
NodalSplitted_toYuleAvg        0.3158
NodalSplitted_toUnifAvg        0.3145
Triples                        1.0000
Triples_toYuleAvg              0.0426
Triples_toUnifAvg              0.0433
MatchingPair                   1.0000
MatchingPair_toYuleAvg         0.0881
MatchingPair_toUnifAvg         0.0894
MAST                           1.0000
MAST_toYuleAvg                 0.3142
MAST_toUnifAvg                 0.3108
CopheneticL2Metric             2.0000
CopheneticL2Metric_toYuleAvg   0.2188
CopheneticL2Metric_toUnifAvg   0.2144

                 Name       Avg  Std       Min       Max  Count
0     MatchingCluster  2.000000  0.0  2.000000  2.000000      1
1         R-F_Cluster  1.000000  0.0  1.000000  1.000000      1
2       NodalSplitted  3.464102  0.0  3.464102  3.464102      1
3             Triples  1.000000  0.0  1.000000  1.000000      1
4        MatchingPair  1.000000  0.0  1.000000  1.000000      1
5                MAST  1.000000  0.0  1.000000  1.000000      1
6  CopheneticL2Metric  2.000000  0.0  2.000000  2.000000      1
