
                            < M A T L A B (R) >
                  Copyright 1984-2017 The MathWorks, Inc.
                   R2017a (9.2.0.538062) 64-bit (glnxa64)
                             February 23, 2017

 
To get started, type one of these: helpwin, helpdesk, or demo.
For product information, visit www.mathworks.com.
 
Running "Run1", Seed: 875887
 *** Finished Simulation Run ***

config-15.json #############################################

[#.........] | Progress: 1 | Time: 0.0s | ETA: --[.#........] | Progress: 107 | Time: 0.1s | ETA: --[..#.......] | Progress: 208 | Time: 0.1s | ETA: --[...#......] | Progress: 309 | Time: 0.2s | ETA: --[....#.....] | Progress: 410 | Time: 0.2s | ETA: --[.....#....] | Progress: 511 | Time: 0.3s | ETA: --[##########] | Progress: 562 | Time: 0.3s | ETA: --fit<>, fid</home/chun/projects/clineage-simulation/analysis/tmc/tmc-006/case-15/triplets-list.raw.txt>, flg<treeReconstruction.log>, frt<resTree.tree>, frtN</home/chun/projects/clineage-simulation/analysis/tmc/tmc-006/case-15/reconstructed.tmp.newick>, fsd<qqq.dat>, fst<simul.tree>, -->index=2
Read triplets from file...
Read triplets from file...Finished
N_triplets = 560, idMaxFound = 18
treeBuildBasedOnTriplets_run...
make_isTogetherInTripletAndDeleteExtraTriplets: Finished
maxCut with 18 nodes: Finished
maxCut with 8 nodes: Finished
maxCut with 10 nodes: Finished
maxCut with 8 nodes: Finished
maxCut with 6 nodes: Finished
treeBuildBasedOnTriplets_run...Finished
Saving tree to file...
Saving tree to file...Finished

                            < M A T L A B (R) >
                  Copyright 1984-2017 The MathWorks, Inc.
                   R2017a (9.2.0.538062) 64-bit (glnxa64)
                             February 23, 2017

 
To get started, type one of these: helpwin, helpdesk, or demo.
For product information, visit www.mathworks.com.
 
TreeCmp version build2

Active options:
Type of the analysis:  ref-to-all comparison mode (-r)
Metrics:
  1. MatchingCluster (mc)
  2. R-F_Cluster (rc)
  3. NodalSplitted (ns)
  4. Triples (tt)
  5. MatchingPair (mp)
  6. MAST (mt)
  7. CopheneticL2Metric (co)
Input file: /home/chun/projects/clineage-simulation/analysis/tmc/tmc-006/case-15/reconstructed.newick
Output file: /home/chun/projects/clineage-simulation/analysis/tmc/tmc-006/case-15/scores.raw.out
Additional options:
N - Report normalized distances.
P - Prune compared trees if needed (trees can have different leaf sets).
I - Include summary section in the output file.
-----
2018-06-18 18:39:08: Start of reading random statistics.
2018-06-18 18:39:08: End of reading random statistics.
2018-06-18 18:39:08: Start of scanning input file: /home/chun/projects/clineage-simulation/analysis/tmc/tmc-006/case-15/reconstructed.newick
2018-06-18 18:39:08: End of scanning input file: /home/chun/projects/clineage-simulation/analysis/tmc/tmc-006/case-15/reconstructed.newick
2018-06-18 18:39:08: 1 valid trees found in file: /home/chun/projects/clineage-simulation/analysis/tmc/tmc-006/case-15/reconstructed.newick
2018-06-18 18:39:08: Start of calculation...please wait...
2018-06-18 18:39:08: 0.00% completed...
2018-06-18 18:39:08: 100.00% completed.
2018-06-18 18:39:08: End of calculation.
2018-06-18 18:39:08: Total calculation time: 22 ms.
                               metrics
No                              1.0000
RefTree                         1.0000
Tree                            1.0000
RefTree_taxa                   18.0000
Tree_taxa                      18.0000
Common_taxa                    18.0000
MatchingCluster                19.0000
MatchingCluster_toYuleAvg       0.2674
MatchingCluster_toUnifAvg       0.2363
R-F_Cluster                     2.5000
R-F_Cluster_toYuleAvg           0.1584
R-F_Cluster_toUnifAvg           0.1580
NodalSplitted                  15.8430
NodalSplitted_toYuleAvg         0.3187
NodalSplitted_toUnifAvg         0.2614
Triples                       142.0000
Triples_toYuleAvg               0.2597
Triples_toUnifAvg               0.2615
MatchingPair                   37.0000
MatchingPair_toYuleAvg          0.3478
MatchingPair_toUnifAvg          0.3557
MAST                            4.0000
MAST_toYuleAvg                  0.3408
MAST_toUnifAvg                  0.3399
CopheneticL2Metric             12.1244
CopheneticL2Metric_toYuleAvg    0.3090
CopheneticL2Metric_toUnifAvg    0.2682

                 Name         Avg  Std         Min         Max  Count
0     MatchingCluster   19.000000  0.0   19.000000   19.000000      1
1         R-F_Cluster    2.500000  0.0    2.500000    2.500000      1
2       NodalSplitted   15.842980  0.0   15.842980   15.842980      1
3             Triples  142.000000  0.0  142.000000  142.000000      1
4        MatchingPair   37.000000  0.0   37.000000   37.000000      1
5                MAST    4.000000  0.0    4.000000    4.000000      1
6  CopheneticL2Metric   12.124356  0.0   12.124356   12.124356      1
