
                            < M A T L A B (R) >
                  Copyright 1984-2017 The MathWorks, Inc.
                   R2017a (9.2.0.538062) 64-bit (glnxa64)
                             February 23, 2017

 
To get started, type one of these: helpwin, helpdesk, or demo.
For product information, visit www.mathworks.com.
 
Running "Run1", Seed: 875887
 *** Finished Simulation Run ***

config-17.json #############################################

[#.........] | Progress: 1 | Time: 0.0s | ETA: --[.#........] | Progress: 103 | Time: 0.1s | ETA: --[..#.......] | Progress: 203 | Time: 0.1s | ETA: --[...#......] | Progress: 305 | Time: 0.2s | ETA: --[....#.....] | Progress: 406 | Time: 0.2s | ETA: --[.....#....] | Progress: 508 | Time: 0.3s | ETA: --[......#...] | Progress: 608 | Time: 0.3s | ETA: --[.......#..] | Progress: 706 | Time: 0.4s | ETA: --[##########] | Progress: 785 | Time: 0.4s | ETA: --fit<>, fid</home/chun/projects/clineage-simulation/analysis/tmc-875887/tmc-006/case-17/triplets-list.raw.txt>, flg<treeReconstruction.log>, frt<resTree.tree>, frtN</home/chun/projects/clineage-simulation/analysis/tmc-875887/tmc-006/case-17/reconstructed.tmp.newick>, fsd<qqq.dat>, fst<simul.tree>, -->index=2
Read triplets from file...
Read triplets from file...Finished
N_triplets = 780, idMaxFound = 20
treeBuildBasedOnTriplets_run...
make_isTogetherInTripletAndDeleteExtraTriplets: Finished
maxCut with 20 nodes: Finished
maxCut with 12 nodes: Finished
maxCut with 9 nodes: Finished
maxCut with 7 nodes: Finished
maxCut with 5 nodes: Finished
maxCut with 8 nodes: Finished
maxCut with 5 nodes: Finished
maxCut with 4 nodes: Finished
treeBuildBasedOnTriplets_run...Finished
Saving tree to file...
Saving tree to file...Finished

                            < M A T L A B (R) >
                  Copyright 1984-2017 The MathWorks, Inc.
                   R2017a (9.2.0.538062) 64-bit (glnxa64)
                             February 23, 2017

 
To get started, type one of these: helpwin, helpdesk, or demo.
For product information, visit www.mathworks.com.
 
TreeCmp version build2

Active options:
Type of the analysis:  ref-to-all comparison mode (-r)
Metrics:
  1. MatchingCluster (mc)
  2. R-F_Cluster (rc)
  3. NodalSplitted (ns)
  4. Triples (tt)
  5. MatchingPair (mp)
  6. MAST (mt)
  7. CopheneticL2Metric (co)
Input file: /home/chun/projects/clineage-simulation/analysis/tmc-875887/tmc-006/case-17/reconstructed.newick
Output file: /home/chun/projects/clineage-simulation/analysis/tmc-875887/tmc-006/case-17/scores.raw.out
Additional options:
N - Report normalized distances.
P - Prune compared trees if needed (trees can have different leaf sets).
I - Include summary section in the output file.
-----
2018-06-18 21:27:27: Start of reading random statistics.
2018-06-18 21:27:27: End of reading random statistics.
2018-06-18 21:27:27: Start of scanning input file: /home/chun/projects/clineage-simulation/analysis/tmc-875887/tmc-006/case-17/reconstructed.newick
2018-06-18 21:27:27: End of scanning input file: /home/chun/projects/clineage-simulation/analysis/tmc-875887/tmc-006/case-17/reconstructed.newick
2018-06-18 21:27:27: 1 valid trees found in file: /home/chun/projects/clineage-simulation/analysis/tmc-875887/tmc-006/case-17/reconstructed.newick
2018-06-18 21:27:27: Start of calculation...please wait...
2018-06-18 21:27:27: 0.00% completed...
2018-06-18 21:27:27: 100.00% completed.
2018-06-18 21:27:27: End of calculation.
2018-06-18 21:27:27: Total calculation time: 28 ms.
                               metrics
No                              1.0000
RefTree                         1.0000
Tree                            1.0000
RefTree_taxa                   20.0000
Tree_taxa                      20.0000
Common_taxa                    20.0000
MatchingCluster                27.0000
MatchingCluster_toYuleAvg       0.3169
MatchingCluster_toUnifAvg       0.2775
R-F_Cluster                     4.0000
R-F_Cluster_toYuleAvg           0.2252
R-F_Cluster_toUnifAvg           0.2241
NodalSplitted                  22.6936
NodalSplitted_toYuleAvg         0.3900
NodalSplitted_toUnifAvg         0.3158
Triples                       235.0000
Triples_toYuleAvg               0.3074
Triples_toUnifAvg               0.3094
MatchingPair                   59.0000
MatchingPair_toYuleAvg          0.4385
MatchingPair_toUnifAvg          0.4484
MAST                            6.0000
MAST_toYuleAvg                  0.4497
MAST_toUnifAvg                  0.4460
CopheneticL2Metric             14.1421
CopheneticL2Metric_toYuleAvg    0.3184
CopheneticL2Metric_toUnifAvg    0.2603

                 Name         Avg  Std         Min         Max  Count
0     MatchingCluster   27.000000  0.0   27.000000   27.000000      1
1         R-F_Cluster    4.000000  0.0    4.000000    4.000000      1
2       NodalSplitted   22.693611  0.0   22.693611   22.693611      1
3             Triples  235.000000  0.0  235.000000  235.000000      1
4        MatchingPair   59.000000  0.0   59.000000   59.000000      1
5                MAST    6.000000  0.0    6.000000    6.000000      1
6  CopheneticL2Metric   14.142136  0.0   14.142136   14.142136      1
