
                            < M A T L A B (R) >
                  Copyright 1984-2017 The MathWorks, Inc.
                   R2017a (9.2.0.538062) 64-bit (glnxa64)
                             February 23, 2017

 
To get started, type one of these: helpwin, helpdesk, or demo.
For product information, visit www.mathworks.com.
 
Running "Run1", Seed: 875887
 *** Finished Simulation Run ***

config-19.json #############################################

[#.........] | Progress: 1 | Time: 0.0s | ETA: --[.#........] | Progress: 328 | Time: 0.1s | ETA: --[..#.......] | Progress: 649 | Time: 0.1s | ETA: --[...#......] | Progress: 963 | Time: 0.2s | ETA: --[##########] | Progress: 1067 | Time: 0.2s | ETA: --fit<>, fid</home/chun/projects/clineage-simulation/analysis/tmc-875887/tmc-002/case-19/triplets-list.raw.txt>, flg<treeReconstruction.log>, frt<resTree.tree>, frtN</home/chun/projects/clineage-simulation/analysis/tmc-875887/tmc-002/case-19/reconstructed.tmp.newick>, fsd<qqq.dat>, fst<simul.tree>, -->index=2
Read triplets from file...
Read triplets from file...Finished
N_triplets = 953, idMaxFound = 22
treeBuildBasedOnTriplets_run...
make_isTogetherInTripletAndDeleteExtraTriplets: Finished
maxCut with 22 nodes: Finished
maxCut with 12 nodes: Finished
maxCut with 10 nodes: Finished
maxCut with 10 nodes: Finished
treeBuildBasedOnTriplets_run...Finished
Saving tree to file...
Saving tree to file...Finished

                            < M A T L A B (R) >
                  Copyright 1984-2017 The MathWorks, Inc.
                   R2017a (9.2.0.538062) 64-bit (glnxa64)
                             February 23, 2017

 
To get started, type one of these: helpwin, helpdesk, or demo.
For product information, visit www.mathworks.com.
 
TreeCmp version build2

Active options:
Type of the analysis:  ref-to-all comparison mode (-r)
Metrics:
  1. MatchingCluster (mc)
  2. R-F_Cluster (rc)
  3. NodalSplitted (ns)
  4. Triples (tt)
  5. MatchingPair (mp)
  6. MAST (mt)
  7. CopheneticL2Metric (co)
Input file: /home/chun/projects/clineage-simulation/analysis/tmc-875887/tmc-002/case-19/reconstructed.newick
Output file: /home/chun/projects/clineage-simulation/analysis/tmc-875887/tmc-002/case-19/scores.raw.out
Additional options:
N - Report normalized distances.
P - Prune compared trees if needed (trees can have different leaf sets).
I - Include summary section in the output file.
-----
2018-06-18 21:26:36: Start of reading random statistics.
2018-06-18 21:26:37: End of reading random statistics.
2018-06-18 21:26:37: Start of scanning input file: /home/chun/projects/clineage-simulation/analysis/tmc-875887/tmc-002/case-19/reconstructed.newick
2018-06-18 21:26:37: End of scanning input file: /home/chun/projects/clineage-simulation/analysis/tmc-875887/tmc-002/case-19/reconstructed.newick
2018-06-18 21:26:37: 1 valid trees found in file: /home/chun/projects/clineage-simulation/analysis/tmc-875887/tmc-002/case-19/reconstructed.newick
2018-06-18 21:26:37: Start of calculation...please wait...
2018-06-18 21:26:37: 0.00% completed...
2018-06-18 21:26:37: 100.00% completed.
2018-06-18 21:26:37: End of calculation.
2018-06-18 21:26:37: Total calculation time: 25 ms.
                               metrics
No                              1.0000
RefTree                         1.0000
Tree                            1.0000
RefTree_taxa                   22.0000
Tree_taxa                      22.0000
Common_taxa                    22.0000
MatchingCluster                62.0000
MatchingCluster_toYuleAvg       0.6274
MatchingCluster_toUnifAvg       0.5354
R-F_Cluster                    14.5000
R-F_Cluster_toYuleAvg           0.7334
R-F_Cluster_toUnifAvg           0.7302
NodalSplitted                  36.2491
NodalSplitted_toYuleAvg         0.5442
NodalSplitted_toUnifAvg         0.4261
Triples                       621.0000
Triples_toYuleAvg               0.6052
Triples_toUnifAvg               0.6034
MatchingPair                  125.0000
MatchingPair_toYuleAvg          0.7588
MatchingPair_toUnifAvg          0.7720
MAST                           15.0000
MAST_toYuleAvg                  1.0001
MAST_toUnifAvg                  0.9929
CopheneticL2Metric             23.3880
CopheneticL2Metric_toYuleAvg    0.4601
CopheneticL2Metric_toUnifAvg    0.3727

                 Name         Avg  Std         Min         Max  Count
0     MatchingCluster   62.000000  0.0   62.000000   62.000000      1
1         R-F_Cluster   14.500000  0.0   14.500000   14.500000      1
2       NodalSplitted   36.249138  0.0   36.249138   36.249138      1
3             Triples  621.000000  0.0  621.000000  621.000000      1
4        MatchingPair  125.000000  0.0  125.000000  125.000000      1
5                MAST   15.000000  0.0   15.000000   15.000000      1
6  CopheneticL2Metric   23.388031  0.0   23.388031   23.388031      1
