
                            < M A T L A B (R) >
                  Copyright 1984-2017 The MathWorks, Inc.
                   R2017a (9.2.0.538062) 64-bit (glnxa64)
                             February 23, 2017

 
To get started, type one of these: helpwin, helpdesk, or demo.
For product information, visit www.mathworks.com.
 
Running "Run1", Seed: 875887
 *** Finished Simulation Run ***

config-12.json #############################################

[#.........] | Progress: 1 | Time: 0.0s | ETA: --[.#........] | Progress: 61 | Time: 0.1s | ETA: --[..#.......] | Progress: 120 | Time: 0.1s | ETA: --[...#......] | Progress: 178 | Time: 0.2s | ETA: --[....#.....] | Progress: 236 | Time: 0.2s | ETA: --[.....#....] | Progress: 293 | Time: 0.3s | ETA: --[##########] | Progress: 304 | Time: 0.3s | ETA: --fit<>, fid</home/chun/projects/clineage-simulation/analysis/tmc/tmc-007/case-12/triplets-list.raw.txt>, flg<treeReconstruction.log>, frt<resTree.tree>, frtN</home/chun/projects/clineage-simulation/analysis/tmc/tmc-007/case-12/reconstructed.tmp.newick>, fsd<qqq.dat>, fst<simul.tree>, -->index=2
Read triplets from file...
Read triplets from file...Finished
N_triplets = 304, idMaxFound = 15
treeBuildBasedOnTriplets_run...
make_isTogetherInTripletAndDeleteExtraTriplets: Finished
maxCut with 15 nodes: Finished
maxCut with 8 nodes: Finished
maxCut with 7 nodes: Finished
treeBuildBasedOnTriplets_run...Finished
Saving tree to file...
Saving tree to file...Finished

                            < M A T L A B (R) >
                  Copyright 1984-2017 The MathWorks, Inc.
                   R2017a (9.2.0.538062) 64-bit (glnxa64)
                             February 23, 2017

 
To get started, type one of these: helpwin, helpdesk, or demo.
For product information, visit www.mathworks.com.
 
TreeCmp version build2

Active options:
Type of the analysis:  ref-to-all comparison mode (-r)
Metrics:
  1. MatchingCluster (mc)
  2. R-F_Cluster (rc)
  3. NodalSplitted (ns)
  4. Triples (tt)
  5. MatchingPair (mp)
  6. MAST (mt)
  7. CopheneticL2Metric (co)
Input file: /home/chun/projects/clineage-simulation/analysis/tmc/tmc-007/case-12/reconstructed.newick
Output file: /home/chun/projects/clineage-simulation/analysis/tmc/tmc-007/case-12/scores.raw.out
Additional options:
N - Report normalized distances.
P - Prune compared trees if needed (trees can have different leaf sets).
I - Include summary section in the output file.
-----
2018-06-18 18:39:06: Start of reading random statistics.
2018-06-18 18:39:06: End of reading random statistics.
2018-06-18 18:39:06: Start of scanning input file: /home/chun/projects/clineage-simulation/analysis/tmc/tmc-007/case-12/reconstructed.newick
2018-06-18 18:39:06: End of scanning input file: /home/chun/projects/clineage-simulation/analysis/tmc/tmc-007/case-12/reconstructed.newick
2018-06-18 18:39:06: 1 valid trees found in file: /home/chun/projects/clineage-simulation/analysis/tmc/tmc-007/case-12/reconstructed.newick
2018-06-18 18:39:06: Start of calculation...please wait...
2018-06-18 18:39:06: 0.00% completed...
2018-06-18 18:39:06: 100.00% completed.
2018-06-18 18:39:06: End of calculation.
2018-06-18 18:39:06: Total calculation time: 22 ms.
                               metrics
No                              1.0000
RefTree                         1.0000
Tree                            1.0000
RefTree_taxa                   15.0000
Tree_taxa                      15.0000
Common_taxa                    15.0000
MatchingCluster                26.0000
MatchingCluster_toYuleAvg       0.5023
MatchingCluster_toUnifAvg       0.4525
R-F_Cluster                     6.0000
R-F_Cluster_toYuleAvg           0.4707
R-F_Cluster_toUnifAvg           0.4681
NodalSplitted                  19.4422
NodalSplitted_toYuleAvg         0.5135
NodalSplitted_toUnifAvg         0.4421
Triples                       128.0000
Triples_toYuleAvg               0.4241
Triples_toUnifAvg               0.4228
MatchingPair                   39.0000
MatchingPair_toYuleAvg          0.5544
MatchingPair_toUnifAvg          0.5622
MAST                            7.0000
MAST_toYuleAvg                  0.7582
MAST_toUnifAvg                  0.7467
CopheneticL2Metric             13.4536
CopheneticL2Metric_toYuleAvg    0.4490
CopheneticL2Metric_toUnifAvg    0.3972

                 Name         Avg  Std         Min         Max  Count
0     MatchingCluster   26.000000  0.0   26.000000   26.000000      1
1         R-F_Cluster    6.000000  0.0    6.000000    6.000000      1
2       NodalSplitted   19.442222  0.0   19.442222   19.442222      1
3             Triples  128.000000  0.0  128.000000  128.000000      1
4        MatchingPair   39.000000  0.0   39.000000   39.000000      1
5                MAST    7.000000  0.0    7.000000    7.000000      1
6  CopheneticL2Metric   13.453624  0.0   13.453624   13.453624      1
