
                            < M A T L A B (R) >
                  Copyright 1984-2017 The MathWorks, Inc.
                   R2017a (9.2.0.538062) 64-bit (glnxa64)
                             February 23, 2017

 
To get started, type one of these: helpwin, helpdesk, or demo.
For product information, visit www.mathworks.com.
 
Running "Run1", Seed: 875887
 *** Finished Simulation Run ***

config-02.json #############################################

[#.........] | Progress: 1 | Time: 0.0s | ETA: --[##########] | Progress: 7 | Time: 0.0s | ETA: --fit<>, fid</home/chun/projects/clineage-simulation/analysis/tmc/tmc-007/case-02/triplets-list.raw.txt>, flg<treeReconstruction.log>, frt<resTree.tree>, frtN</home/chun/projects/clineage-simulation/analysis/tmc/tmc-007/case-02/reconstructed.tmp.newick>, fsd<qqq.dat>, fst<simul.tree>, -->index=2
Read triplets from file...
Read triplets from file...Finished
N_triplets = 7, idMaxFound = 5
treeBuildBasedOnTriplets_run...
make_isTogetherInTripletAndDeleteExtraTriplets: Finished
maxCut with 5 nodes: Finished
treeBuildBasedOnTriplets_run...Finished
Saving tree to file...
Saving tree to file...Finished

                            < M A T L A B (R) >
                  Copyright 1984-2017 The MathWorks, Inc.
                   R2017a (9.2.0.538062) 64-bit (glnxa64)
                             February 23, 2017

 
To get started, type one of these: helpwin, helpdesk, or demo.
For product information, visit www.mathworks.com.
 
TreeCmp version build2

Active options:
Type of the analysis:  ref-to-all comparison mode (-r)
Metrics:
  1. MatchingCluster (mc)
  2. R-F_Cluster (rc)
  3. NodalSplitted (ns)
  4. Triples (tt)
  5. MatchingPair (mp)
  6. MAST (mt)
  7. CopheneticL2Metric (co)
Input file: /home/chun/projects/clineage-simulation/analysis/tmc/tmc-007/case-02/reconstructed.newick
Output file: /home/chun/projects/clineage-simulation/analysis/tmc/tmc-007/case-02/scores.raw.out
Additional options:
N - Report normalized distances.
P - Prune compared trees if needed (trees can have different leaf sets).
I - Include summary section in the output file.
-----
2018-06-18 18:39:08: Start of reading random statistics.
2018-06-18 18:39:08: End of reading random statistics.
2018-06-18 18:39:08: Start of scanning input file: /home/chun/projects/clineage-simulation/analysis/tmc/tmc-007/case-02/reconstructed.newick
2018-06-18 18:39:08: End of scanning input file: /home/chun/projects/clineage-simulation/analysis/tmc/tmc-007/case-02/reconstructed.newick
2018-06-18 18:39:08: 1 valid trees found in file: /home/chun/projects/clineage-simulation/analysis/tmc/tmc-007/case-02/reconstructed.newick
2018-06-18 18:39:08: Start of calculation...please wait...
2018-06-18 18:39:08: 0.00% completed...
2018-06-18 18:39:08: 100.00% completed.
2018-06-18 18:39:08: End of calculation.
2018-06-18 18:39:08: Total calculation time: 18 ms.
                              metrics
No                             1.0000
RefTree                        1.0000
Tree                           1.0000
RefTree_taxa                   5.0000
Tree_taxa                      5.0000
Common_taxa                    5.0000
MatchingCluster                4.0000
MatchingCluster_toYuleAvg      0.6701
MatchingCluster_toUnifAvg      0.6732
R-F_Cluster                    1.0000
R-F_Cluster_toYuleAvg          0.3805
R-F_Cluster_toUnifAvg          0.3776
NodalSplitted                  3.4641
NodalSplitted_toYuleAvg        0.6171
NodalSplitted_toUnifAvg        0.6147
Triples                        4.0000
Triples_toYuleAvg              0.5976
Triples_toUnifAvg              0.5980
MatchingPair                   4.0000
MatchingPair_toYuleAvg         0.8923
MatchingPair_toUnifAvg         0.8897
MAST                           1.0000
MAST_toYuleAvg                 0.5546
MAST_toUnifAvg                 0.5482
CopheneticL2Metric             3.1623
CopheneticL2Metric_toYuleAvg   0.6496
CopheneticL2Metric_toUnifAvg   0.6331

                 Name       Avg  Std       Min       Max  Count
0     MatchingCluster  4.000000  0.0  4.000000  4.000000      1
1         R-F_Cluster  1.000000  0.0  1.000000  1.000000      1
2       NodalSplitted  3.464102  0.0  3.464102  3.464102      1
3             Triples  4.000000  0.0  4.000000  4.000000      1
4        MatchingPair  4.000000  0.0  4.000000  4.000000      1
5                MAST  1.000000  0.0  1.000000  1.000000      1
6  CopheneticL2Metric  3.162278  0.0  3.162278  3.162278      1
