
                            < M A T L A B (R) >
                  Copyright 1984-2017 The MathWorks, Inc.
                   R2017a (9.2.0.538062) 64-bit (glnxa64)
                             February 23, 2017

 
To get started, type one of these: helpwin, helpdesk, or demo.
For product information, visit www.mathworks.com.
 
Running "Run1", Seed: 181848
 *** Finished Simulation Run ***

config-19.json #############################################

[#.........] | Progress: 1 | Time: 0.0s | ETA: --[.#........] | Progress: 294 | Time: 0.1s | ETA: --[..#.......] | Progress: 623 | Time: 0.1s | ETA: --[...#......] | Progress: 922 | Time: 0.2s | ETA: --[##########] | Progress: 1055 | Time: 0.2s | ETA: --fit<>, fid</home/chun/projects/clineage-simulation/analysis/tmc-181848/tmc-003/case-19/triplets-list.raw.txt>, flg<treeReconstruction.log>, frt<resTree.tree>, frtN</home/chun/projects/clineage-simulation/analysis/tmc-181848/tmc-003/case-19/reconstructed.tmp.newick>, fsd<qqq.dat>, fst<simul.tree>, -->index=2
Read triplets from file...
Read triplets from file...Finished
N_triplets = 628, idMaxFound = 22
treeBuildBasedOnTriplets_run...
make_isTogetherInTripletAndDeleteExtraTriplets: Finished
maxCut with 19 nodes: Finished
maxCut with 16 nodes: Finished
maxCut with 14 nodes: Finished
maxCut with 11 nodes: Finished
maxCut with 10 nodes: Finished
maxCut with 9 nodes: Finished
maxCut with 6 nodes: Finished
treeBuildBasedOnTriplets_run...Finished
Saving tree to file...
Saving tree to file...Finished

                            < M A T L A B (R) >
                  Copyright 1984-2017 The MathWorks, Inc.
                   R2017a (9.2.0.538062) 64-bit (glnxa64)
                             February 23, 2017

 
To get started, type one of these: helpwin, helpdesk, or demo.
For product information, visit www.mathworks.com.
 
TreeCmp version build2

Active options:
Type of the analysis:  ref-to-all comparison mode (-r)
Metrics:
  1. MatchingCluster (mc)
  2. R-F_Cluster (rc)
  3. NodalSplitted (ns)
  4. Triples (tt)
  5. MatchingPair (mp)
  6. MAST (mt)
  7. CopheneticL2Metric (co)
Input file: /home/chun/projects/clineage-simulation/analysis/tmc-181848/tmc-003/case-19/reconstructed.newick
Output file: /home/chun/projects/clineage-simulation/analysis/tmc-181848/tmc-003/case-19/scores.raw.out
Additional options:
N - Report normalized distances.
P - Prune compared trees if needed (trees can have different leaf sets).
I - Include summary section in the output file.
-----
2018-06-19 06:08:39: Start of reading random statistics.
2018-06-19 06:08:39: End of reading random statistics.
2018-06-19 06:08:39: Start of scanning input file: /home/chun/projects/clineage-simulation/analysis/tmc-181848/tmc-003/case-19/reconstructed.newick
2018-06-19 06:08:39: End of scanning input file: /home/chun/projects/clineage-simulation/analysis/tmc-181848/tmc-003/case-19/reconstructed.newick
2018-06-19 06:08:39: 1 valid trees found in file: /home/chun/projects/clineage-simulation/analysis/tmc-181848/tmc-003/case-19/reconstructed.newick
2018-06-19 06:08:39: Start of calculation...please wait...
2018-06-19 06:08:39: 0.00% completed...
2018-06-19 06:08:39: 100.00% completed.
2018-06-19 06:08:39: End of calculation.
2018-06-19 06:08:39: Total calculation time: 26 ms.
                               metrics
No                              1.0000
RefTree                         1.0000
Tree                            1.0000
RefTree_taxa                   22.0000
Tree_taxa                      22.0000
Common_taxa                    22.0000
MatchingCluster                78.0000
MatchingCluster_toYuleAvg       0.7893
MatchingCluster_toUnifAvg       0.6735
R-F_Cluster                    13.5000
R-F_Cluster_toYuleAvg           0.6828
R-F_Cluster_toUnifAvg           0.6798
NodalSplitted                  54.6809
NodalSplitted_toYuleAvg         0.8209
NodalSplitted_toUnifAvg         0.6427
Triples                       651.0000
Triples_toYuleAvg               0.6345
Triples_toUnifAvg               0.6325
MatchingPair                  144.0000
MatchingPair_toYuleAvg          0.8741
MatchingPair_toUnifAvg          0.8893
MAST                           13.0000
MAST_toYuleAvg                  0.8668
MAST_toUnifAvg                  0.8605
CopheneticL2Metric             41.4729
CopheneticL2Metric_toYuleAvg    0.8160
CopheneticL2Metric_toUnifAvg    0.6609

                 Name         Avg  Std         Min         Max  Count
0     MatchingCluster   78.000000  0.0   78.000000   78.000000      1
1         R-F_Cluster   13.500000  0.0   13.500000   13.500000      1
2       NodalSplitted   54.680892  0.0   54.680892   54.680892      1
3             Triples  651.000000  0.0  651.000000  651.000000      1
4        MatchingPair  144.000000  0.0  144.000000  144.000000      1
5                MAST   13.000000  0.0   13.000000   13.000000      1
6  CopheneticL2Metric   41.472883  0.0   41.472883   41.472883      1
