
                            < M A T L A B (R) >
                  Copyright 1984-2017 The MathWorks, Inc.
                   R2017a (9.2.0.538062) 64-bit (glnxa64)
                             February 23, 2017

 
To get started, type one of these: helpwin, helpdesk, or demo.
For product information, visit www.mathworks.com.
 
Running "Run1", Seed: 875887
 *** Finished Simulation Run ***

config-13.json #############################################

[#.........] | Progress: 1 | Time: 0.0s | ETA: --[.#........] | Progress: 230 | Time: 0.1s | ETA: --[##########] | Progress: 382 | Time: 0.1s | ETA: --fit<>, fid</home/chun/projects/clineage-simulation/analysis/tmc/tmc-003/case-13/triplets-list.raw.txt>, flg<treeReconstruction.log>, frt<resTree.tree>, frtN</home/chun/projects/clineage-simulation/analysis/tmc/tmc-003/case-13/reconstructed.tmp.newick>, fsd<qqq.dat>, fst<simul.tree>, -->index=2
Read triplets from file...
Read triplets from file...Finished
N_triplets = 356, idMaxFound = 16
treeBuildBasedOnTriplets_run...
make_isTogetherInTripletAndDeleteExtraTriplets: Finished
maxCut with 15 nodes: Finished
maxCut with 14 nodes: Finished
maxCut with 10 nodes: Finished
treeBuildBasedOnTriplets_run...Finished
Saving tree to file...
Saving tree to file...Finished

                            < M A T L A B (R) >
                  Copyright 1984-2017 The MathWorks, Inc.
                   R2017a (9.2.0.538062) 64-bit (glnxa64)
                             February 23, 2017

 
To get started, type one of these: helpwin, helpdesk, or demo.
For product information, visit www.mathworks.com.
 
TreeCmp version build2

Active options:
Type of the analysis:  ref-to-all comparison mode (-r)
Metrics:
  1. MatchingCluster (mc)
  2. R-F_Cluster (rc)
  3. NodalSplitted (ns)
  4. Triples (tt)
  5. MatchingPair (mp)
  6. MAST (mt)
  7. CopheneticL2Metric (co)
Input file: /home/chun/projects/clineage-simulation/analysis/tmc/tmc-003/case-13/reconstructed.newick
Output file: /home/chun/projects/clineage-simulation/analysis/tmc/tmc-003/case-13/scores.raw.out
Additional options:
N - Report normalized distances.
P - Prune compared trees if needed (trees can have different leaf sets).
I - Include summary section in the output file.
-----
2018-06-18 18:38:29: Start of reading random statistics.
2018-06-18 18:38:30: End of reading random statistics.
2018-06-18 18:38:30: Start of scanning input file: /home/chun/projects/clineage-simulation/analysis/tmc/tmc-003/case-13/reconstructed.newick
2018-06-18 18:38:30: End of scanning input file: /home/chun/projects/clineage-simulation/analysis/tmc/tmc-003/case-13/reconstructed.newick
2018-06-18 18:38:30: 1 valid trees found in file: /home/chun/projects/clineage-simulation/analysis/tmc/tmc-003/case-13/reconstructed.newick
2018-06-18 18:38:30: Start of calculation...please wait...
2018-06-18 18:38:30: 0.00% completed...
2018-06-18 18:38:30: 100.00% completed.
2018-06-18 18:38:30: End of calculation.
2018-06-18 18:38:30: Total calculation time: 28 ms.
                              metrics
No                             1.0000
RefTree                        1.0000
Tree                           1.0000
RefTree_taxa                  16.0000
Tree_taxa                     16.0000
Common_taxa                   16.0000
MatchingCluster               20.0000
MatchingCluster_toYuleAvg      0.3422
MatchingCluster_toUnifAvg      0.3098
R-F_Cluster                    5.0000
R-F_Cluster_toYuleAvg          0.3631
R-F_Cluster_toUnifAvg          0.3617
NodalSplitted                 15.8114
NodalSplitted_toYuleAvg        0.3756
NodalSplitted_toUnifAvg        0.3213
Triples                       52.0000
Triples_toYuleAvg              0.1394
Triples_toUnifAvg              0.1397
MatchingPair                  30.0000
MatchingPair_toYuleAvg         0.3674
MatchingPair_toUnifAvg         0.3748
MAST                           6.0000
MAST_toYuleAvg                 0.5961
MAST_toUnifAvg                 0.5925
CopheneticL2Metric            11.2694
CopheneticL2Metric_toYuleAvg   0.3429
CopheneticL2Metric_toUnifAvg   0.3030

                 Name        Avg  Std        Min        Max  Count
0     MatchingCluster  20.000000  0.0  20.000000  20.000000      1
1         R-F_Cluster   5.000000  0.0   5.000000   5.000000      1
2       NodalSplitted  15.811388  0.0  15.811388  15.811388      1
3             Triples  52.000000  0.0  52.000000  52.000000      1
4        MatchingPair  30.000000  0.0  30.000000  30.000000      1
5                MAST   6.000000  0.0   6.000000   6.000000      1
6  CopheneticL2Metric  11.269428  0.0  11.269428  11.269428      1
