
                            < M A T L A B (R) >
                  Copyright 1984-2017 The MathWorks, Inc.
                   R2017a (9.2.0.538062) 64-bit (glnxa64)
                             February 23, 2017

 
To get started, type one of these: helpwin, helpdesk, or demo.
For product information, visit www.mathworks.com.
 
Running "Run1", Seed: 875887
 *** Finished Simulation Run ***

config-14.json #############################################

[#.........] | Progress: 1 | Time: 0.0s | ETA: --[.#........] | Progress: 150 | Time: 0.1s | ETA: --[..#.......] | Progress: 358 | Time: 0.1s | ETA: --[##########] | Progress: 462 | Time: 0.1s | ETA: --fit<>, fid</home/chun/projects/clineage-simulation/analysis/tmc/tmc-003/case-14/triplets-list.raw.txt>, flg<treeReconstruction.log>, frt<resTree.tree>, frtN</home/chun/projects/clineage-simulation/analysis/tmc/tmc-003/case-14/reconstructed.tmp.newick>, fsd<qqq.dat>, fst<simul.tree>, -->index=2
Read triplets from file...
Read triplets from file...Finished
N_triplets = 420, idMaxFound = 17
treeBuildBasedOnTriplets_run...
make_isTogetherInTripletAndDeleteExtraTriplets: Finished
maxCut with 16 nodes: Finished
maxCut with 15 nodes: Finished
maxCut with 11 nodes: Finished
maxCut with 6 nodes: Finished
maxCut with 5 nodes: Finished
treeBuildBasedOnTriplets_run...Finished
Saving tree to file...
Saving tree to file...Finished

                            < M A T L A B (R) >
                  Copyright 1984-2017 The MathWorks, Inc.
                   R2017a (9.2.0.538062) 64-bit (glnxa64)
                             February 23, 2017

 
To get started, type one of these: helpwin, helpdesk, or demo.
For product information, visit www.mathworks.com.
 
TreeCmp version build2

Active options:
Type of the analysis:  ref-to-all comparison mode (-r)
Metrics:
  1. MatchingCluster (mc)
  2. R-F_Cluster (rc)
  3. NodalSplitted (ns)
  4. Triples (tt)
  5. MatchingPair (mp)
  6. MAST (mt)
  7. CopheneticL2Metric (co)
Input file: /home/chun/projects/clineage-simulation/analysis/tmc/tmc-003/case-14/reconstructed.newick
Output file: /home/chun/projects/clineage-simulation/analysis/tmc/tmc-003/case-14/scores.raw.out
Additional options:
N - Report normalized distances.
P - Prune compared trees if needed (trees can have different leaf sets).
I - Include summary section in the output file.
-----
2018-06-18 18:39:32: Start of reading random statistics.
2018-06-18 18:39:33: End of reading random statistics.
2018-06-18 18:39:33: Start of scanning input file: /home/chun/projects/clineage-simulation/analysis/tmc/tmc-003/case-14/reconstructed.newick
2018-06-18 18:39:33: End of scanning input file: /home/chun/projects/clineage-simulation/analysis/tmc/tmc-003/case-14/reconstructed.newick
2018-06-18 18:39:33: 1 valid trees found in file: /home/chun/projects/clineage-simulation/analysis/tmc/tmc-003/case-14/reconstructed.newick
2018-06-18 18:39:33: Start of calculation...please wait...
2018-06-18 18:39:33: 0.00% completed...
2018-06-18 18:39:33: 100.00% completed.
2018-06-18 18:39:33: End of calculation.
2018-06-18 18:39:33: Total calculation time: 292 ms.
                              metrics
No                             1.0000
RefTree                        1.0000
Tree                           1.0000
RefTree_taxa                  17.0000
Tree_taxa                     17.0000
Common_taxa                   17.0000
MatchingCluster               21.0000
MatchingCluster_toYuleAvg      0.3249
MatchingCluster_toUnifAvg      0.2889
R-F_Cluster                    7.0000
R-F_Cluster_toYuleAvg          0.4739
R-F_Cluster_toUnifAvg          0.4715
NodalSplitted                 17.0294
NodalSplitted_toYuleAvg        0.3715
NodalSplitted_toUnifAvg        0.3110
Triples                       70.0000
Triples_toYuleAvg              0.1542
Triples_toUnifAvg              0.1539
MatchingPair                  37.0000
MatchingPair_toYuleAvg         0.3960
MatchingPair_toUnifAvg         0.4022
MAST                           6.0000
MAST_toYuleAvg                 0.5518
MAST_toUnifAvg                 0.5480
CopheneticL2Metric            12.0830
CopheneticL2Metric_toYuleAvg   0.3364
CopheneticL2Metric_toUnifAvg   0.2923

                 Name        Avg  Std        Min        Max  Count
0     MatchingCluster  21.000000  0.0  21.000000  21.000000      1
1         R-F_Cluster   7.000000  0.0   7.000000   7.000000      1
2       NodalSplitted  17.029386  0.0  17.029386  17.029386      1
3             Triples  70.000000  0.0  70.000000  70.000000      1
4        MatchingPair  37.000000  0.0  37.000000  37.000000      1
5                MAST   6.000000  0.0   6.000000   6.000000      1
6  CopheneticL2Metric  12.083046  0.0  12.083046  12.083046      1
