
                            < M A T L A B (R) >
                  Copyright 1984-2017 The MathWorks, Inc.
                   R2017a (9.2.0.538062) 64-bit (glnxa64)
                             February 23, 2017

 
To get started, type one of these: helpwin, helpdesk, or demo.
For product information, visit www.mathworks.com.
 
Running "Run1", Seed: 875887
 *** Finished Simulation Run ***

config-04.json #############################################

[#.........] | Progress: 1 | Time: 0.0s | ETA: --[##########] | Progress: 29 | Time: 0.0s | ETA: --fit<>, fid</home/chun/projects/clineage-simulation/analysis/tmc/tmc-003/case-04/triplets-list.raw.txt>, flg<treeReconstruction.log>, frt<resTree.tree>, frtN</home/chun/projects/clineage-simulation/analysis/tmc/tmc-003/case-04/reconstructed.tmp.newick>, fsd<qqq.dat>, fst<simul.tree>, -->index=2
Read triplets from file...
Read triplets from file...Finished
N_triplets = 16, idMaxFound = 7
treeBuildBasedOnTriplets_run...
make_isTogetherInTripletAndDeleteExtraTriplets: Finished
treeBuildBasedOnTriplets_run...Finished
Saving tree to file...
Saving tree to file...Finished

                            < M A T L A B (R) >
                  Copyright 1984-2017 The MathWorks, Inc.
                   R2017a (9.2.0.538062) 64-bit (glnxa64)
                             February 23, 2017

 
To get started, type one of these: helpwin, helpdesk, or demo.
For product information, visit www.mathworks.com.
 
TreeCmp version build2

Active options:
Type of the analysis:  ref-to-all comparison mode (-r)
Metrics:
  1. MatchingCluster (mc)
  2. R-F_Cluster (rc)
  3. NodalSplitted (ns)
  4. Triples (tt)
  5. MatchingPair (mp)
  6. MAST (mt)
  7. CopheneticL2Metric (co)
Input file: /home/chun/projects/clineage-simulation/analysis/tmc/tmc-003/case-04/reconstructed.newick
Output file: /home/chun/projects/clineage-simulation/analysis/tmc/tmc-003/case-04/scores.raw.out
Additional options:
N - Report normalized distances.
P - Prune compared trees if needed (trees can have different leaf sets).
I - Include summary section in the output file.
-----
2018-06-18 18:38:30: Start of reading random statistics.
2018-06-18 18:38:30: End of reading random statistics.
2018-06-18 18:38:30: Start of scanning input file: /home/chun/projects/clineage-simulation/analysis/tmc/tmc-003/case-04/reconstructed.newick
2018-06-18 18:38:30: End of scanning input file: /home/chun/projects/clineage-simulation/analysis/tmc/tmc-003/case-04/reconstructed.newick
2018-06-18 18:38:30: 1 valid trees found in file: /home/chun/projects/clineage-simulation/analysis/tmc/tmc-003/case-04/reconstructed.newick
2018-06-18 18:38:30: Start of calculation...please wait...
2018-06-18 18:38:30: 0.00% completed...
2018-06-18 18:38:30: 100.00% completed.
2018-06-18 18:38:30: End of calculation.
2018-06-18 18:38:30: Total calculation time: 41 ms.
                              metrics
No                             1.0000
RefTree                        1.0000
Tree                           1.0000
RefTree_taxa                   7.0000
Tree_taxa                      7.0000
Common_taxa                    7.0000
MatchingCluster               11.0000
MatchingCluster_toYuleAvg      0.8718
MatchingCluster_toUnifAvg      0.8683
R-F_Cluster                    3.5000
R-F_Cluster_toYuleAvg          0.7450
R-F_Cluster_toUnifAvg          0.7475
NodalSplitted                 10.8628
NodalSplitted_toYuleAvg        0.9902
NodalSplitted_toUnifAvg        0.9862
Triples                       22.0000
Triples_toYuleAvg              0.9383
Triples_toUnifAvg              0.9518
MatchingPair                   9.0000
MatchingPair_toYuleAvg         0.7929
MatchingPair_toUnifAvg         0.8050
MAST                           3.0000
MAST_toYuleAvg                 0.9425
MAST_toUnifAvg                 0.9325
CopheneticL2Metric            10.7238
CopheneticL2Metric_toYuleAvg   1.1733
CopheneticL2Metric_toUnifAvg   1.1498

                 Name        Avg  Std        Min        Max  Count
0     MatchingCluster  11.000000  0.0  11.000000  11.000000      1
1         R-F_Cluster   3.500000  0.0   3.500000   3.500000      1
2       NodalSplitted  10.862780  0.0  10.862780  10.862780      1
3             Triples  22.000000  0.0  22.000000  22.000000      1
4        MatchingPair   9.000000  0.0   9.000000   9.000000      1
5                MAST   3.000000  0.0   3.000000   3.000000      1
6  CopheneticL2Metric  10.723805  0.0  10.723805  10.723805      1
