
                            < M A T L A B (R) >
                  Copyright 1984-2017 The MathWorks, Inc.
                   R2017a (9.2.0.538062) 64-bit (glnxa64)
                             February 23, 2017

 
To get started, type one of these: helpwin, helpdesk, or demo.
For product information, visit www.mathworks.com.
 
Running "Run1", Seed: 181848
 *** Finished Simulation Run ***

config-18.json #############################################

[#.........] | Progress: 1 | Time: 0.0s | ETA: --[.#........] | Progress: 132 | Time: 0.1s | ETA: --[..#.......] | Progress: 267 | Time: 0.1s | ETA: --[...#......] | Progress: 403 | Time: 0.2s | ETA: --[....#.....] | Progress: 536 | Time: 0.2s | ETA: --[.....#....] | Progress: 668 | Time: 0.3s | ETA: --[......#...] | Progress: 801 | Time: 0.3s | ETA: --[##########] | Progress: 909 | Time: 0.3s | ETA: --fit<>, fid</home/chun/projects/clineage-simulation/analysis/tmc-181848/tmc-005/case-18/triplets-list.raw.txt>, flg<treeReconstruction.log>, frt<resTree.tree>, frtN</home/chun/projects/clineage-simulation/analysis/tmc-181848/tmc-005/case-18/reconstructed.tmp.newick>, fsd<qqq.dat>, fst<simul.tree>, -->index=2
Read triplets from file...
Read triplets from file...Finished
N_triplets = 893, idMaxFound = 21
treeBuildBasedOnTriplets_run...
make_isTogetherInTripletAndDeleteExtraTriplets: Finished
maxCut with 21 nodes: Finished
maxCut with 18 nodes: Finished
maxCut with 13 nodes: Finished
maxCut with 6 nodes: Finished
maxCut with 7 nodes: Finished
treeBuildBasedOnTriplets_run...Finished
Saving tree to file...
Saving tree to file...Finished

                            < M A T L A B (R) >
                  Copyright 1984-2017 The MathWorks, Inc.
                   R2017a (9.2.0.538062) 64-bit (glnxa64)
                             February 23, 2017

 
To get started, type one of these: helpwin, helpdesk, or demo.
For product information, visit www.mathworks.com.
 
TreeCmp version build2

Active options:
Type of the analysis:  ref-to-all comparison mode (-r)
Metrics:
  1. MatchingCluster (mc)
  2. R-F_Cluster (rc)
  3. NodalSplitted (ns)
  4. Triples (tt)
  5. MatchingPair (mp)
  6. MAST (mt)
  7. CopheneticL2Metric (co)
Input file: /home/chun/projects/clineage-simulation/analysis/tmc-181848/tmc-005/case-18/reconstructed.newick
Output file: /home/chun/projects/clineage-simulation/analysis/tmc-181848/tmc-005/case-18/scores.raw.out
Additional options:
N - Report normalized distances.
P - Prune compared trees if needed (trees can have different leaf sets).
I - Include summary section in the output file.
-----
2018-06-19 06:08:45: Start of reading random statistics.
2018-06-19 06:08:45: End of reading random statistics.
2018-06-19 06:08:45: Start of scanning input file: /home/chun/projects/clineage-simulation/analysis/tmc-181848/tmc-005/case-18/reconstructed.newick
2018-06-19 06:08:45: End of scanning input file: /home/chun/projects/clineage-simulation/analysis/tmc-181848/tmc-005/case-18/reconstructed.newick
2018-06-19 06:08:45: 1 valid trees found in file: /home/chun/projects/clineage-simulation/analysis/tmc-181848/tmc-005/case-18/reconstructed.newick
2018-06-19 06:08:45: Start of calculation...please wait...
2018-06-19 06:08:45: 0.00% completed...
2018-06-19 06:08:45: 100.00% completed.
2018-06-19 06:08:45: End of calculation.
2018-06-19 06:08:45: Total calculation time: 27 ms.
                               metrics
No                              1.0000
RefTree                         1.0000
Tree                            1.0000
RefTree_taxa                   21.0000
Tree_taxa                      21.0000
Common_taxa                    21.0000
MatchingCluster                46.0000
MatchingCluster_toYuleAvg       0.5022
MatchingCluster_toUnifAvg       0.4349
R-F_Cluster                    10.0000
R-F_Cluster_toYuleAvg           0.5327
R-F_Cluster_toUnifAvg           0.5305
NodalSplitted                  35.6931
NodalSplitted_toYuleAvg         0.5797
NodalSplitted_toUnifAvg         0.4586
Triples                       543.0000
Triples_toYuleAvg               0.6115
Triples_toUnifAvg               0.6126
MatchingPair                  103.0000
MatchingPair_toYuleAvg          0.6896
MatchingPair_toUnifAvg          0.7036
MAST                           11.0000
MAST_toYuleAvg                  0.7760
MAST_toUnifAvg                  0.7705
CopheneticL2Metric             22.5389
CopheneticL2Metric_toYuleAvg    0.4737
CopheneticL2Metric_toUnifAvg    0.3902

                 Name         Avg  Std         Min         Max  Count
0     MatchingCluster   46.000000  0.0   46.000000   46.000000      1
1         R-F_Cluster   10.000000  0.0   10.000000   10.000000      1
2       NodalSplitted   35.693137  0.0   35.693137   35.693137      1
3             Triples  543.000000  0.0  543.000000  543.000000      1
4        MatchingPair  103.000000  0.0  103.000000  103.000000      1
5                MAST   11.000000  0.0   11.000000   11.000000      1
6  CopheneticL2Metric   22.538855  0.0   22.538855   22.538855      1
