
                            < M A T L A B (R) >
                  Copyright 1984-2017 The MathWorks, Inc.
                   R2017a (9.2.0.538062) 64-bit (glnxa64)
                             February 23, 2017

 
To get started, type one of these: helpwin, helpdesk, or demo.
For product information, visit www.mathworks.com.
 
Running "Run1", Seed: 145539
 *** Finished Simulation Run ***

config-14.json #############################################

[#.........] | Progress: 1 | Time: 0.0s | ETA: --[.#........] | Progress: 133 | Time: 0.1s | ETA: --[..#.......] | Progress: 265 | Time: 0.1s | ETA: --[...#......] | Progress: 391 | Time: 0.2s | ETA: --[##########] | Progress: 471 | Time: 0.2s | ETA: --fit<>, fid</home/chun/projects/clineage-simulation/analysis/tmc-145539/tmc-005/case-14/triplets-list.raw.txt>, flg<treeReconstruction.log>, frt<resTree.tree>, frtN</home/chun/projects/clineage-simulation/analysis/tmc-145539/tmc-005/case-14/reconstructed.tmp.newick>, fsd<qqq.dat>, fst<simul.tree>, -->index=2
Read triplets from file...
Read triplets from file...Finished
N_triplets = 469, idMaxFound = 17
treeBuildBasedOnTriplets_run...
make_isTogetherInTripletAndDeleteExtraTriplets: Finished
maxCut with 17 nodes: Finished
maxCut with 16 nodes: Finished
maxCut with 5 nodes: Finished
maxCut with 11 nodes: Finished
maxCut with 6 nodes: Finished
treeBuildBasedOnTriplets_run...Finished
Saving tree to file...
Saving tree to file...Finished

                            < M A T L A B (R) >
                  Copyright 1984-2017 The MathWorks, Inc.
                   R2017a (9.2.0.538062) 64-bit (glnxa64)
                             February 23, 2017

 
To get started, type one of these: helpwin, helpdesk, or demo.
For product information, visit www.mathworks.com.
 
TreeCmp version build2

Active options:
Type of the analysis:  ref-to-all comparison mode (-r)
Metrics:
  1. MatchingCluster (mc)
  2. R-F_Cluster (rc)
  3. NodalSplitted (ns)
  4. Triples (tt)
  5. MatchingPair (mp)
  6. MAST (mt)
  7. CopheneticL2Metric (co)
Input file: /home/chun/projects/clineage-simulation/analysis/tmc-145539/tmc-005/case-14/reconstructed.newick
Output file: /home/chun/projects/clineage-simulation/analysis/tmc-145539/tmc-005/case-14/scores.raw.out
Additional options:
N - Report normalized distances.
P - Prune compared trees if needed (trees can have different leaf sets).
I - Include summary section in the output file.
-----
2018-06-19 06:47:59: Start of reading random statistics.
2018-06-19 06:48:00: End of reading random statistics.
2018-06-19 06:48:00: Start of scanning input file: /home/chun/projects/clineage-simulation/analysis/tmc-145539/tmc-005/case-14/reconstructed.newick
2018-06-19 06:48:00: End of scanning input file: /home/chun/projects/clineage-simulation/analysis/tmc-145539/tmc-005/case-14/reconstructed.newick
2018-06-19 06:48:00: 1 valid trees found in file: /home/chun/projects/clineage-simulation/analysis/tmc-145539/tmc-005/case-14/reconstructed.newick
2018-06-19 06:48:00: Start of calculation...please wait...
2018-06-19 06:48:00: 0.00% completed...
2018-06-19 06:48:00: 100.00% completed.
2018-06-19 06:48:00: End of calculation.
2018-06-19 06:48:00: Total calculation time: 30 ms.
                              metrics
No                             1.0000
RefTree                        1.0000
Tree                           1.0000
RefTree_taxa                  17.0000
Tree_taxa                     17.0000
Common_taxa                   17.0000
MatchingCluster               21.0000
MatchingCluster_toYuleAvg      0.3249
MatchingCluster_toUnifAvg      0.2889
R-F_Cluster                    5.0000
R-F_Cluster_toYuleAvg          0.3385
R-F_Cluster_toUnifAvg          0.3368
NodalSplitted                 22.1359
NodalSplitted_toYuleAvg        0.4829
NodalSplitted_toUnifAvg        0.4043
Triples                       56.0000
Triples_toYuleAvg              0.1233
Triples_toUnifAvg              0.1231
MatchingPair                  22.0000
MatchingPair_toYuleAvg         0.2355
MatchingPair_toUnifAvg         0.2391
MAST                           5.0000
MAST_toYuleAvg                 0.4598
MAST_toUnifAvg                 0.4567
CopheneticL2Metric            14.2127
CopheneticL2Metric_toYuleAvg   0.3957
CopheneticL2Metric_toUnifAvg   0.3438

                 Name        Avg  Std        Min        Max  Count
0     MatchingCluster  21.000000  0.0  21.000000  21.000000      1
1         R-F_Cluster   5.000000  0.0   5.000000   5.000000      1
2       NodalSplitted  22.135944  0.0  22.135944  22.135944      1
3             Triples  56.000000  0.0  56.000000  56.000000      1
4        MatchingPair  22.000000  0.0  22.000000  22.000000      1
5                MAST   5.000000  0.0   5.000000   5.000000      1
6  CopheneticL2Metric  14.212670  0.0  14.212670  14.212670      1
