
                            < M A T L A B (R) >
                  Copyright 1984-2017 The MathWorks, Inc.
                   R2017a (9.2.0.538062) 64-bit (glnxa64)
                             February 23, 2017

 
To get started, type one of these: helpwin, helpdesk, or demo.
For product information, visit www.mathworks.com.
 
Running "Run1", Seed: 145539
 *** Finished Simulation Run ***

config-15.json #############################################

[#.........] | Progress: 1 | Time: 0.0s | ETA: --[.#........] | Progress: 56 | Time: 0.1s | ETA: --[..#.......] | Progress: 111 | Time: 0.1s | ETA: --[...#......] | Progress: 167 | Time: 0.2s | ETA: --[....#.....] | Progress: 221 | Time: 0.2s | ETA: --[.....#....] | Progress: 276 | Time: 0.3s | ETA: --[......#...] | Progress: 331 | Time: 0.3s | ETA: --[.......#..] | Progress: 387 | Time: 0.4s | ETA: --[........#.] | Progress: 442 | Time: 0.4s | ETA: --[.........#] | Progress: 497 | Time: 0.5s | ETA: --[........#.] | Progress: 550 | Time: 0.5s | ETA: --[##########] | Progress: 564 | Time: 0.5s | ETA: --fit<>, fid</home/chun/projects/clineage-simulation/analysis/tmc-145539/tmc-007/case-15/triplets-list.raw.txt>, flg<treeReconstruction.log>, frt<resTree.tree>, frtN</home/chun/projects/clineage-simulation/analysis/tmc-145539/tmc-007/case-15/reconstructed.tmp.newick>, fsd<qqq.dat>, fst<simul.tree>, -->index=2
Read triplets from file...
Read triplets from file...Finished
N_triplets = 564, idMaxFound = 18
treeBuildBasedOnTriplets_run...
make_isTogetherInTripletAndDeleteExtraTriplets: Finished
maxCut with 18 nodes: Finished
maxCut with 13 nodes: Finished
maxCut with 8 nodes: Finished
treeBuildBasedOnTriplets_run...Finished
Saving tree to file...
Saving tree to file...Finished

                            < M A T L A B (R) >
                  Copyright 1984-2017 The MathWorks, Inc.
                   R2017a (9.2.0.538062) 64-bit (glnxa64)
                             February 23, 2017

 
To get started, type one of these: helpwin, helpdesk, or demo.
For product information, visit www.mathworks.com.
 
TreeCmp version build2

Active options:
Type of the analysis:  ref-to-all comparison mode (-r)
Metrics:
  1. MatchingCluster (mc)
  2. R-F_Cluster (rc)
  3. NodalSplitted (ns)
  4. Triples (tt)
  5. MatchingPair (mp)
  6. MAST (mt)
  7. CopheneticL2Metric (co)
Input file: /home/chun/projects/clineage-simulation/analysis/tmc-145539/tmc-007/case-15/reconstructed.newick
Output file: /home/chun/projects/clineage-simulation/analysis/tmc-145539/tmc-007/case-15/scores.raw.out
Additional options:
N - Report normalized distances.
P - Prune compared trees if needed (trees can have different leaf sets).
I - Include summary section in the output file.
-----
2018-06-19 06:48:40: Start of reading random statistics.
2018-06-19 06:48:40: End of reading random statistics.
2018-06-19 06:48:40: Start of scanning input file: /home/chun/projects/clineage-simulation/analysis/tmc-145539/tmc-007/case-15/reconstructed.newick
2018-06-19 06:48:40: End of scanning input file: /home/chun/projects/clineage-simulation/analysis/tmc-145539/tmc-007/case-15/reconstructed.newick
2018-06-19 06:48:40: 1 valid trees found in file: /home/chun/projects/clineage-simulation/analysis/tmc-145539/tmc-007/case-15/reconstructed.newick
2018-06-19 06:48:40: Start of calculation...please wait...
2018-06-19 06:48:40: 0.00% completed...
2018-06-19 06:48:40: 100.00% completed.
2018-06-19 06:48:40: End of calculation.
2018-06-19 06:48:40: Total calculation time: 24 ms.
                              metrics
No                             1.0000
RefTree                        1.0000
Tree                           1.0000
RefTree_taxa                  18.0000
Tree_taxa                     18.0000
Common_taxa                   18.0000
MatchingCluster               13.0000
MatchingCluster_toYuleAvg      0.1830
MatchingCluster_toUnifAvg      0.1617
R-F_Cluster                    2.0000
R-F_Cluster_toYuleAvg          0.1267
R-F_Cluster_toUnifAvg          0.1264
NodalSplitted                 12.6095
NodalSplitted_toYuleAvg        0.2536
NodalSplitted_toUnifAvg        0.2080
Triples                       35.0000
Triples_toYuleAvg              0.0640
Triples_toUnifAvg              0.0645
MatchingPair                  11.0000
MatchingPair_toYuleAvg         0.1034
MatchingPair_toUnifAvg         0.1058
MAST                           2.0000
MAST_toYuleAvg                 0.1704
MAST_toUnifAvg                 0.1699
CopheneticL2Metric             9.1652
CopheneticL2Metric_toYuleAvg   0.2336
CopheneticL2Metric_toUnifAvg   0.2028

                 Name        Avg  Std        Min        Max  Count
0     MatchingCluster  13.000000  0.0  13.000000  13.000000      1
1         R-F_Cluster   2.000000  0.0   2.000000   2.000000      1
2       NodalSplitted  12.609520  0.0  12.609520  12.609520      1
3             Triples  35.000000  0.0  35.000000  35.000000      1
4        MatchingPair  11.000000  0.0  11.000000  11.000000      1
5                MAST   2.000000  0.0   2.000000   2.000000      1
6  CopheneticL2Metric   9.165151  0.0   9.165151   9.165151      1
