
                            < M A T L A B (R) >
                  Copyright 1984-2017 The MathWorks, Inc.
                   R2017a (9.2.0.538062) 64-bit (glnxa64)
                             February 23, 2017

 
To get started, type one of these: helpwin, helpdesk, or demo.
For product information, visit www.mathworks.com.
 
Running "Run1", Seed: 875887
 *** Finished Simulation Run ***

config-10.json #############################################

[#.........] | Progress: 1 | Time: 0.0s | ETA: --[.#........] | Progress: 52 | Time: 0.1s | ETA: --[..#.......] | Progress: 104 | Time: 0.1s | ETA: --[...#......] | Progress: 157 | Time: 0.2s | ETA: --[##########] | Progress: 201 | Time: 0.2s | ETA: --fit<>, fid</home/chun/projects/clineage-simulation/analysis/tmc-875887/tmc-007/case-10/triplets-list.raw.txt>, flg<treeReconstruction.log>, frt<resTree.tree>, frtN</home/chun/projects/clineage-simulation/analysis/tmc-875887/tmc-007/case-10/reconstructed.tmp.newick>, fsd<qqq.dat>, fst<simul.tree>, -->index=2
Read triplets from file...
Read triplets from file...Finished
N_triplets = 201, idMaxFound = 13
treeBuildBasedOnTriplets_run...
make_isTogetherInTripletAndDeleteExtraTriplets: Finished
maxCut with 13 nodes: Finished
maxCut with 6 nodes: Finished
treeBuildBasedOnTriplets_run...Finished
Saving tree to file...
Saving tree to file...Finished

                            < M A T L A B (R) >
                  Copyright 1984-2017 The MathWorks, Inc.
                   R2017a (9.2.0.538062) 64-bit (glnxa64)
                             February 23, 2017

 
To get started, type one of these: helpwin, helpdesk, or demo.
For product information, visit www.mathworks.com.
 
TreeCmp version build2

Active options:
Type of the analysis:  ref-to-all comparison mode (-r)
Metrics:
  1. MatchingCluster (mc)
  2. R-F_Cluster (rc)
  3. NodalSplitted (ns)
  4. Triples (tt)
  5. MatchingPair (mp)
  6. MAST (mt)
  7. CopheneticL2Metric (co)
Input file: /home/chun/projects/clineage-simulation/analysis/tmc-875887/tmc-007/case-10/reconstructed.newick
Output file: /home/chun/projects/clineage-simulation/analysis/tmc-875887/tmc-007/case-10/scores.raw.out
Additional options:
N - Report normalized distances.
P - Prune compared trees if needed (trees can have different leaf sets).
I - Include summary section in the output file.
-----
2018-06-18 21:27:22: Start of reading random statistics.
2018-06-18 21:27:23: End of reading random statistics.
2018-06-18 21:27:23: Start of scanning input file: /home/chun/projects/clineage-simulation/analysis/tmc-875887/tmc-007/case-10/reconstructed.newick
2018-06-18 21:27:23: End of scanning input file: /home/chun/projects/clineage-simulation/analysis/tmc-875887/tmc-007/case-10/reconstructed.newick
2018-06-18 21:27:23: 1 valid trees found in file: /home/chun/projects/clineage-simulation/analysis/tmc-875887/tmc-007/case-10/reconstructed.newick
2018-06-18 21:27:23: Start of calculation...please wait...
2018-06-18 21:27:23: 0.00% completed...
2018-06-18 21:27:23: 100.00% completed.
2018-06-18 21:27:23: End of calculation.
2018-06-18 21:27:23: Total calculation time: 24 ms.
                              metrics
No                             1.0000
RefTree                        1.0000
Tree                           1.0000
RefTree_taxa                  13.0000
Tree_taxa                     13.0000
Common_taxa                   13.0000
MatchingCluster               14.0000
MatchingCluster_toYuleAvg      0.3429
MatchingCluster_toUnifAvg      0.3174
R-F_Cluster                    2.0000
R-F_Cluster_toYuleAvg          0.1855
R-F_Cluster_toUnifAvg          0.1848
NodalSplitted                 11.6619
NodalSplitted_toYuleAvg        0.3808
NodalSplitted_toUnifAvg        0.3364
Triples                       78.0000
Triples_toYuleAvg              0.4081
Triples_toUnifAvg              0.4083
MatchingPair                  27.0000
MatchingPair_toYuleAvg         0.5301
MatchingPair_toUnifAvg         0.5392
MAST                           4.0000
MAST_toYuleAvg                 0.5197
MAST_toUnifAvg                 0.5151
CopheneticL2Metric             9.6954
CopheneticL2Metric_toYuleAvg   0.3996
CopheneticL2Metric_toUnifAvg   0.3630

                 Name        Avg  Std        Min        Max  Count
0     MatchingCluster  14.000000  0.0  14.000000  14.000000      1
1         R-F_Cluster   2.000000  0.0   2.000000   2.000000      1
2       NodalSplitted  11.661904  0.0  11.661904  11.661904      1
3             Triples  78.000000  0.0  78.000000  78.000000      1
4        MatchingPair  27.000000  0.0  27.000000  27.000000      1
5                MAST   4.000000  0.0   4.000000   4.000000      1
6  CopheneticL2Metric   9.695360  0.0   9.695360   9.695360      1
